/*---------------------------------------------------------------------------*\
| =========                 |                                                 |
| \\      /  F ield         | OpenFOAM: The Open Source CFD Toolbox           |
|  \\    /   O peration     | Version:  2.4.0                                 |
|   \\  /    A nd           | Web:      www.OpenFOAM.org                      |
|    \\/     M anipulation  |                                                 |
\*---------------------------------------------------------------------------*/
Build  : 2.4.0-f0842aea0e77
Exec   : pisoFoam
Date   : Sep 28 2015
Time   : 11:28:02
Host   : "ubuntu"
PID    : 18698
Case   : /home/brennanharris/OpenFOAM/brennanharris-2.4.0/run/tutorials/incompressible/pisoFoam/ras/cavity
nProcs : 1
sigFpe : Enabling floating point exception trapping (FOAM_SIGFPE).
fileModificationChecking : Monitoring run-time modified files using timeStampMaster
allowSystemOperations : Allowing user-supplied system call operations

// * * * * * * * * * * * * * * * * * * * * * * * * * * * * * * * * * * * * * //
Create time

Create mesh for time = 0

Reading field p

Reading field U

Reading/calculating face flux field phi

Selecting incompressible transport model Newtonian
Selecting turbulence model type RASModel
Selecting RAS turbulence model kEpsilon
kEpsilonCoeffs
{
    Cmu             0.09;
    C1              1.44;
    C2              1.92;
    sigmaEps        1.3;
}


Starting time loop

Time = 0.005

Courant Number mean: 0 max: 0
smoothSolver:  Solving for Ux, Initial residual = 1, Final residual = 4.64379e-06, No Iterations 11
smoothSolver:  Solving for Uy, Initial residual = 1, Final residual = 9.11116e-06, No Iterations 10
GAMG:  Solving for p, Initial residual = 1, Final residual = 0.041466, No Iterations 2
time step continuity errors : sum local = 4.96481e-05, global = -5.29396e-21, cumulative = -5.29396e-21
GAMG:  Solving for p, Initial residual = 0.117771, Final residual = 4.97033e-07, No Iterations 10
time step continuity errors : sum local = 1.43783e-09, global = -3.10451e-21, cumulative = -8.39847e-21
smoothSolver:  Solving for epsilon, Initial residual = 0.043666, Final residual = 7.0929e-06, No Iterations 6
smoothSolver:  Solving for k, Initial residual = 1, Final residual = 7.31162e-06, No Iterations 10
ExecutionTime = 0.02 s  ClockTime = 0 s

Time = 0.01

Courant Number mean: 0.00149645 max: 0.0286752
smoothSolver:  Solving for Ux, Initial residual = 0.386864, Final residual = 8.19673e-06, No Iterations 8
smoothSolver:  Solving for Uy, Initial residual = 0.378646, Final residual = 7.91454e-06, No Iterations 7
GAMG:  Solving for p, Initial residual = 0.518434, Final residual = 0.0212582, No Iterations 2
time step continuity errors : sum local = 4.98893e-05, global = 1.58819e-20, cumulative = 7.4834e-21
GAMG:  Solving for p, Initial residual = 0.0466256, Final residual = 3.98321e-07, No Iterations 9
time step continuity errors : sum local = 7.35934e-10, global = 1.95819e-20, cumulative = 2.70653e-20
smoothSolver:  Solving for epsilon, Initial residual = 0.0039029, Final residual = 4.48346e-06, No Iterations 4
smoothSolver:  Solving for k, Initial residual = 0.364397, Final residual = 5.58389e-06, No Iterations 7
ExecutionTime = 0.02 s  ClockTime = 0 s

Time = 0.015

Courant Number mean: 0.00195992 max: 0.0359391
smoothSolver:  Solving for Ux, Initial residual = 0.124936, Final residual = 5.3401e-06, No Iterations 7
smoothSolver:  Solving for Uy, Initial residual = 0.110852, Final residual = 5.71097e-06, No Iterations 7
GAMG:  Solving for p, Initial residual = 0.314211, Final residual = 0.00944837, No Iterations 2
time step continuity errors : sum local = 1.00023e-05, global = -1.45791e-20, cumulative = 1.24862e-20
GAMG:  Solving for p, Initial residual = 0.0222973, Final residual = 9.23519e-07, No Iterations 10
time step continuity errors : sum local = 8.32124e-10, global = -7.80135e-21, cumulative = 4.68488e-21
smoothSolver:  Solving for epsilon, Initial residual = 0.00366373, Final residual = 3.59332e-06, No Iterations 4
smoothSolver:  Solving for k, Initial residual = 0.214073, Final residual = 3.17698e-06, No Iterations 7
ExecutionTime = 0.02 s  ClockTime = 0 s

Time = 0.02

Courant Number mean: 0.00224653 max: 0.0372185
smoothSolver:  Solving for Ux, Initial residual = 0.0901568, Final residual = 7.54393e-06, No Iterations 7
smoothSolver:  Solving for Uy, Initial residual = 0.0712707, Final residual = 4.15561e-06, No Iterations 7
GAMG:  Solving for p, Initial residual = 0.162404, Final residual = 0.0158679, No Iterations 1
time step continuity errors : sum local = 1.09815e-05, global = -2.15067e-21, cumulative = 2.53421e-21
GAMG:  Solving for p, Initial residual = 0.0172178, Final residual = 7.95959e-07, No Iterations 9
time step continuity errors : sum local = 6.0339e-10, global = 3.35512e-20, cumulative = 3.60854e-20
smoothSolver:  Solving for epsilon, Initial residual = 0.00343717, Final residual = 2.99399e-06, No Iterations 4
smoothSolver:  Solving for k, Initial residual = 0.149081, Final residual = 7.06506e-06, No Iterations 6
ExecutionTime = 0.03 s  ClockTime = 0 s

Time = 0.025

Courant Number mean: 0.00262749 max: 0.0395404
smoothSolver:  Solving for Ux, Initial residual = 0.0742621, Final residual = 6.03214e-06, No Iterations 7
smoothSolver:  Solving for Uy, Initial residual = 0.0513288, Final residual = 3.03888e-06, No Iterations 7
GAMG:  Solving for p, Initial residual = 0.0970737, Final residual = 0.00228948, No Iterations 2
time step continuity errors : sum local = 1.33554e-06, global = 2.76278e-20, cumulative = 6.37133e-20
GAMG:  Solving for p, Initial residual = 0.00371945, Final residual = 5.7212e-07, No Iterations 9
time step continuity errors : sum local = 3.59827e-10, global = -1.38087e-20, cumulative = 4.99045e-20
smoothSolver:  Solving for epsilon, Initial residual = 0.00322101, Final residual = 2.5444e-06, No Iterations 4
smoothSolver:  Solving for k, Initial residual = 0.113524, Final residual = 5.28677e-06, No Iterations 6
ExecutionTime = 0.03 s  ClockTime = 0 s

Time = 0.03

Courant Number mean: 0.00299961 max: 0.0416262
smoothSolver:  Solving for Ux, Initial residual = 0.0616827, Final residual = 4.88618e-06, No Iterations 7
smoothSolver:  Solving for Uy, Initial residual = 0.0461607, Final residual = 9.06519e-06, No Iterations 6
GAMG:  Solving for p, Initial residual = 0.0705074, Final residual = 0.00194918, No Iterations 2
time step continuity errors : sum local = 1.00075e-06, global = -9.95202e-22, cumulative = 4.89093e-20
GAMG:  Solving for p, Initial residual = 0.00256449, Final residual = 7.8416e-07, No Iterations 8
time step continuity errors : sum local = 3.90345e-10, global = 2.85222e-20, cumulative = 7.74315e-20
smoothSolver:  Solving for epsilon, Initial residual = 0.00302899, Final residual = 2.18787e-06, No Iterations 4
smoothSolver:  Solving for k, Initial residual = 0.0911325, Final residual = 4.18062e-06, No Iterations 6
ExecutionTime = 0.03 s  ClockTime = 0 s

Time = 0.035

Courant Number mean: 0.00336873 max: 0.0436629
smoothSolver:  Solving for Ux, Initial residual = 0.0532064, Final residual = 4.05172e-06, No Iterations 7
smoothSolver:  Solving for Uy, Initial residual = 0.0426034, Final residual = 7.91011e-06, No Iterations 6
GAMG:  Solving for p, Initial residual = 0.0611514, Final residual = 0.00157156, No Iterations 2
time step continuity errors : sum local = 7.17598e-07, global = -2.21684e-20, cumulative = 5.52631e-20
GAMG:  Solving for p, Initial residual = 0.00234364, Final residual = 6.19818e-07, No Iterations 8
time step continuity errors : sum local = 2.96632e-10, global = 6.02646e-21, cumulative = 6.12896e-20
smoothSolver:  Solving for epsilon, Initial residual = 0.00285814, Final residual = 8.82213e-06, No Iterations 3
smoothSolver:  Solving for k, Initial residual = 0.0754679, Final residual = 3.42723e-06, No Iterations 6
ExecutionTime = 0.03 s  ClockTime = 0 s

Time = 0.04

Courant Number mean: 0.0037399 max: 0.0456466
smoothSolver:  Solving for Ux, Initial residual = 0.0470144, Final residual = 3.43905e-06, No Iterations 7
smoothSolver:  Solving for Uy, Initial residual = 0.0392104, Final residual = 6.89316e-06, No Iterations 6
GAMG:  Solving for p, Initial residual = 0.0509664, Final residual = 0.00123293, No Iterations 2
time step continuity errors : sum local = 5.09898e-07, global = 1.33383e-20, cumulative = 7.46278e-20
GAMG:  Solving for p, Initial residual = 0.00187975, Final residual = 9.07135e-07, No Iterations 8
time step continuity errors : sum local = 4.13465e-10, global = -1.38656e-20, cumulative = 6.07622e-20
smoothSolver:  Solving for epsilon, Initial residual = 0.0027508, Final residual = 7.77968e-06, No Iterations 3
smoothSolver:  Solving for k, Initial residual = 0.0639254, Final residual = 9.72963e-06, No Iterations 5
ExecutionTime = 0.03 s  ClockTime = 0 s

Time = 0.045

Courant Number mean: 0.00411186 max: 0.0475937
smoothSolver:  Solving for Ux, Initial residual = 0.0421763, Final residual = 9.58731e-06, No Iterations 6
smoothSolver:  Solving for Uy, Initial residual = 0.0365673, Final residual = 6.01442e-06, No Iterations 6
GAMG:  Solving for p, Initial residual = 0.0419599, Final residual = 0.0011705, No Iterations 2
time step continuity errors : sum local = 4.48716e-07, global = -1.2356e-20, cumulative = 4.84062e-20
GAMG:  Solving for p, Initial residual = 0.00171821, Final residual = 5.54153e-07, No Iterations 8
time step continuity errors : sum local = 2.42029e-10, global = -9.10157e-21, cumulative = 3.93047e-20
smoothSolver:  Solving for epsilon, Initial residual = 0.0026926, Final residual = 6.88848e-06, No Iterations 3
smoothSolver:  Solving for k, Initial residual = 0.0551259, Final residual = 8.40516e-06, No Iterations 5
ExecutionTime = 0.04 s  ClockTime = 0 s

Time = 0.05

Courant Number mean: 0.00447736 max: 0.0494578
smoothSolver:  Solving for Ux, Initial residual = 0.0382578, Final residual = 8.35945e-06, No Iterations 6
smoothSolver:  Solving for Uy, Initial residual = 0.0345117, Final residual = 5.2636e-06, No Iterations 6
GAMG:  Solving for p, Initial residual = 0.0463284, Final residual = 0.00118312, No Iterations 2
time step continuity errors : sum local = 4.16449e-07, global = -1.11773e-20, cumulative = 2.81274e-20
GAMG:  Solving for p, Initial residual = 0.00203337, Final residual = 8.39876e-07, No Iterations 8
time step continuity errors : sum local = 3.30235e-10, global = -4.0506e-21, cumulative = 2.40768e-20
smoothSolver:  Solving for epsilon, Initial residual = 0.0026369, Final residual = 6.12029e-06, No Iterations 3
smoothSolver:  Solving for k, Initial residual = 0.0482544, Final residual = 7.38114e-06, No Iterations 5
ExecutionTime = 0.04 s  ClockTime = 0 s

Time = 0.055

Courant Number mean: 0.00483756 max: 0.05125
smoothSolver:  Solving for Ux, Initial residual = 0.0350474, Final residual = 7.3678e-06, No Iterations 6
smoothSolver:  Solving for Uy, Initial residual = 0.0324643, Final residual = 4.61487e-06, No Iterations 6
GAMG:  Solving for p, Initial residual = 0.034307, Final residual = 0.00328355, No Iterations 1
time step continuity errors : sum local = 1.07175e-06, global = 7.20164e-21, cumulative = 3.12784e-20
GAMG:  Solving for p, Initial residual = 0.00381357, Final residual = 7.1193e-07, No Iterations 9
time step continuity errors : sum local = 2.62188e-10, global = -1.60266e-20, cumulative = 1.52518e-20
smoothSolver:  Solving for epsilon, Initial residual = 0.0025663, Final residual = 5.46125e-06, No Iterations 3
smoothSolver:  Solving for k, Initial residual = 0.0427086, Final residual = 6.56696e-06, No Iterations 5
ExecutionTime = 0.04 s  ClockTime = 0 s

Time = 0.06

Courant Number mean: 0.00519527 max: 0.0530075
smoothSolver:  Solving for Ux, Initial residual = 0.0326508, Final residual = 6.53065e-06, No Iterations 6
smoothSolver:  Solving for Uy, Initial residual = 0.030373, Final residual = 4.08165e-06, No Iterations 6
GAMG:  Solving for p, Initial residual = 0.0256183, Final residual = 0.000706882, No Iterations 2
time step continuity errors : sum local = 2.23484e-07, global = 4.21552e-20, cumulative = 5.7407e-20
GAMG:  Solving for p, Initial residual = 0.000972155, Final residual = 4.40776e-07, No Iterations 6
time step continuity errors : sum local = 1.39171e-10, global = -1.31237e-20, cumulative = 4.42832e-20
smoothSolver:  Solving for epsilon, Initial residual = 0.00248799, Final residual = 4.89423e-06, No Iterations 3
smoothSolver:  Solving for k, Initial residual = 0.0385748, Final residual = 5.90386e-06, No Iterations 5
ExecutionTime = 0.05 s  ClockTime = 0 s

Time = 0.065

Courant Number mean: 0.00555389 max: 0.0547323
smoothSolver:  Solving for Ux, Initial residual = 0.0307578, Final residual = 5.88156e-06, No Iterations 6
smoothSolver:  Solving for Uy, Initial residual = 0.029035, Final residual = 3.65884e-06, No Iterations 6
GAMG:  Solving for p, Initial residual = 0.0236184, Final residual = 0.000594483, No Iterations 2
time step continuity errors : sum local = 1.81667e-07, global = 8.07897e-20, cumulative = 1.25073e-19
GAMG:  Solving for p, Initial residual = 0.000918811, Final residual = 8.05134e-07, No Iterations 6
time step continuity errors : sum local = 2.76083e-10, global = -2.95976e-20, cumulative = 9.54754e-20
smoothSolver:  Solving for epsilon, Initial residual = 0.00240331, Final residual = 4.40109e-06, No Iterations 3
smoothSolver:  Solving for k, Initial residual = 0.035288, Final residual = 5.34711e-06, No Iterations 5
ExecutionTime = 0.05 s  ClockTime = 0 s

Time = 0.07

Courant Number mean: 0.00591541 max: 0.0564442
smoothSolver:  Solving for Ux, Initial residual = 0.0291356, Final residual = 5.33938e-06, No Iterations 6
smoothSolver:  Solving for Uy, Initial residual = 0.0278934, Final residual = 3.30262e-06, No Iterations 6
GAMG:  Solving for p, Initial residual = 0.0211733, Final residual = 0.000511062, No Iterations 2
time step continuity errors : sum local = 1.54216e-07, global = 2.7297e-21, cumulative = 9.82051e-20
GAMG:  Solving for p, Initial residual = 0.000831828, Final residual = 3.35603e-07, No Iterations 6
time step continuity errors : sum local = 1.03408e-10, global = -8.94001e-21, cumulative = 8.92651e-20
smoothSolver:  Solving for epsilon, Initial residual = 0.00231325, Final residual = 3.9658e-06, No Iterations 3
smoothSolver:  Solving for k, Initial residual = 0.0324416, Final residual = 4.87138e-06, No Iterations 5
ExecutionTime = 0.06 s  ClockTime = 0 s

Time = 0.075

Courant Number mean: 0.0062786 max: 0.058147
smoothSolver:  Solving for Ux, Initial residual = 0.0276878, Final residual = 4.85719e-06, No Iterations 6
smoothSolver:  Solving for Uy, Initial residual = 0.026888, Final residual = 2.98193e-06, No Iterations 6
GAMG:  Solving for p, Initial residual = 0.0190618, Final residual = 0.000450021, No Iterations 2
time step continuity errors : sum local = 1.34831e-07, global = 1.72415e-21, cumulative = 9.09892e-20
GAMG:  Solving for p, Initial residual = 0.000746266, Final residual = 9.03129e-07, No Iterations 5
time step continuity errors : sum local = 3.00342e-10, global = -3.20222e-20, cumulative = 5.8967e-20
smoothSolver:  Solving for epsilon, Initial residual = 0.00222279, Final residual = 3.58636e-06, No Iterations 3
smoothSolver:  Solving for k, Initial residual = 0.0299548, Final residual = 4.45995e-06, No Iterations 5
ExecutionTime = 0.06 s  ClockTime = 0 s

Time = 0.08

Courant Number mean: 0.00664369 max: 0.059844
smoothSolver:  Solving for Ux, Initial residual = 0.0263891, Final residual = 4.42605e-06, No Iterations 6
smoothSolver:  Solving for Uy, Initial residual = 0.025991, Final residual = 9.61467e-06, No Iterations 5
GAMG:  Solving for p, Initial residual = 0.0197065, Final residual = 0.0004096, No Iterations 2
time step continuity errors : sum local = 1.2244e-07, global = 1.43102e-20, cumulative = 7.32772e-20
GAMG:  Solving for p, Initial residual = 0.000813636, Final residual = 7.32408e-07, No Iterations 5
time step continuity errors : sum local = 2.67682e-10, global = 6.56575e-22, cumulative = 7.39338e-20
smoothSolver:  Solving for epsilon, Initial residual = 0.00213375, Final residual = 3.2543e-06, No Iterations 3
smoothSolver:  Solving for k, Initial residual = 0.0277783, Final residual = 4.10285e-06, No Iterations 5
ExecutionTime = 0.06 s  ClockTime = 0 s

Time = 0.085

Courant Number mean: 0.00701033 max: 0.0615337
smoothSolver:  Solving for Ux, Initial residual = 0.0252223, Final residual = 4.04934e-06, No Iterations 6
smoothSolver:  Solving for Uy, Initial residual = 0.0250681, Final residual = 8.76765e-06, No Iterations 5
GAMG:  Solving for p, Initial residual = 0.0188458, Final residual = 0.000395385, No Iterations 2
time step continuity errors : sum local = 1.18831e-07, global = 3.82571e-21, cumulative = 7.77595e-20
GAMG:  Solving for p, Initial residual = 0.00078241, Final residual = 8.02797e-07, No Iterations 5
time step continuity errors : sum local = 2.86141e-10, global = 4.70924e-20, cumulative = 1.24852e-19
smoothSolver:  Solving for epsilon, Initial residual = 0.00204247, Final residual = 2.95625e-06, No Iterations 3
smoothSolver:  Solving for k, Initial residual = 0.0258489, Final residual = 3.78931e-06, No Iterations 5
ExecutionTime = 0.06 s  ClockTime = 0 s

Time = 0.09

Courant Number mean: 0.00737783 max: 0.063219
smoothSolver:  Solving for Ux, Initial residual = 0.0241961, Final residual = 3.70732e-06, No Iterations 6
smoothSolver:  Solving for Uy, Initial residual = 0.0241479, Final residual = 7.99768e-06, No Iterations 5
GAMG:  Solving for p, Initial residual = 0.0240113, Final residual = 0.00050812, No Iterations 2
time step continuity errors : sum local = 1.53157e-07, global = -2.7085e-20, cumulative = 9.77669e-20
GAMG:  Solving for p, Initial residual = 0.00096246, Final residual = 4.22954e-07, No Iterations 6
time step continuity errors : sum local = 1.62722e-10, global = -1.83957e-20, cumulative = 7.93712e-20
smoothSolver:  Solving for epsilon, Initial residual = 0.00195128, Final residual = 2.69177e-06, No Iterations 3
smoothSolver:  Solving for k, Initial residual = 0.0241144, Final residual = 3.51138e-06, No Iterations 5
ExecutionTime = 0.07 s  ClockTime = 0 s

Time = 0.095

Courant Number mean: 0.00774582 max: 0.0648659
smoothSolver:  Solving for Ux, Initial residual = 0.0231978, Final residual = 3.40198e-06, No Iterations 6
smoothSolver:  Solving for Uy, Initial residual = 0.0232206, Final residual = 7.29464e-06, No Iterations 5
GAMG:  Solving for p, Initial residual = 0.0193024, Final residual = 0.000458092, No Iterations 2
time step continuity errors : sum local = 1.39321e-07, global = -3.6277e-20, cumulative = 4.30942e-20
GAMG:  Solving for p, Initial residual = 0.000779059, Final residual = 8.20726e-07, No Iterations 6
time step continuity errors : sum local = 2.92411e-10, global = 3.14225e-20, cumulative = 7.45167e-20
smoothSolver:  Solving for epsilon, Initial residual = 0.00187024, Final residual = 2.45841e-06, No Iterations 3
smoothSolver:  Solving for k, Initial residual = 0.022532, Final residual = 3.26348e-06, No Iterations 5
ExecutionTime = 0.07 s  ClockTime = 0 s

Time = 0.1

Courant Number mean: 0.00811851 max: 0.0665215
smoothSolver:  Solving for Ux, Initial residual = 0.0222028, Final residual = 3.12024e-06, No Iterations 6
smoothSolver:  Solving for Uy, Initial residual = 0.0225341, Final residual = 6.66181e-06, No Iterations 5
GAMG:  Solving for p, Initial residual = 0.01938, Final residual = 0.0005277, No Iterations 2
time step continuity errors : sum local = 1.58835e-07, global = 2.83154e-20, cumulative = 1.02832e-19
GAMG:  Solving for p, Initial residual = 0.000874522, Final residual = 5.08869e-07, No Iterations 6
time step continuity errors : sum local = 1.67079e-10, global = -2.51773e-21, cumulative = 1.00314e-19
smoothSolver:  Solving for epsilon, Initial residual = 0.00179627, Final residual = 2.24546e-06, No Iterations 3
smoothSolver:  Solving for k, Initial residual = 0.0210941, Final residual = 3.04211e-06, No Iterations 5
ExecutionTime = 0.07 s  ClockTime = 0 s

Time = 0.105

Courant Number mean: 0.00849698 max: 0.0689628
smoothSolver:  Solving for Ux, Initial residual = 0.0212659, Final residual = 9.96515e-06, No Iterations 5
smoothSolver:  Solving for Uy, Initial residual = 0.0218934, Final residual = 6.10405e-06, No Iterations 5
GAMG:  Solving for p, Initial residual = 0.0223274, Final residual = 0.000596758, No Iterations 2
time step continuity errors : sum local = 1.79986e-07, global = -1.15185e-20, cumulative = 8.87959e-20
GAMG:  Solving for p, Initial residual = 0.000961305, Final residual = 4.68433e-07, No Iterations 6
time step continuity errors : sum local = 1.80105e-10, global = 2.95898e-20, cumulative = 1.18386e-19
smoothSolver:  Solving for epsilon, Initial residual = 0.00171873, Final residual = 2.05344e-06, No Iterations 3
smoothSolver:  Solving for k, Initial residual = 0.0198057, Final residual = 2.84392e-06, No Iterations 5
ExecutionTime = 0.07 s  ClockTime = 0 s

Time = 0.11

Courant Number mean: 0.00887454 max: 0.0713445
smoothSolver:  Solving for Ux, Initial residual = 0.0203875, Final residual = 9.23035e-06, No Iterations 5
smoothSolver:  Solving for Uy, Initial residual = 0.0213331, Final residual = 5.60073e-06, No Iterations 5
GAMG:  Solving for p, Initial residual = 0.0174709, Final residual = 0.000343024, No Iterations 2
time step continuity errors : sum local = 1.05443e-07, global = -2.8941e-20, cumulative = 8.94447e-20
GAMG:  Solving for p, Initial residual = 0.000759673, Final residual = 8.74539e-07, No Iterations 5
time step continuity errors : sum local = 3.40407e-10, global = 1.83841e-20, cumulative = 1.07829e-19
smoothSolver:  Solving for epsilon, Initial residual = 0.00163208, Final residual = 1.87164e-06, No Iterations 3
smoothSolver:  Solving for k, Initial residual = 0.018636, Final residual = 2.66563e-06, No Iterations 5
ExecutionTime = 0.08 s  ClockTime = 0 s

Time = 0.115

Courant Number mean: 0.00925157 max: 0.0737259
smoothSolver:  Solving for Ux, Initial residual = 0.0195994, Final residual = 8.57003e-06, No Iterations 5
smoothSolver:  Solving for Uy, Initial residual = 0.0206448, Final residual = 5.1426e-06, No Iterations 5
GAMG:  Solving for p, Initial residual = 0.0173967, Final residual = 0.000309491, No Iterations 2
time step continuity errors : sum local = 9.7574e-08, global = 5.43561e-20, cumulative = 1.62185e-19
GAMG:  Solving for p, Initial residual = 0.000730092, Final residual = 8.22509e-07, No Iterations 5
time step continuity errors : sum local = 3.31826e-10, global = -1.78568e-20, cumulative = 1.44328e-19
smoothSolver:  Solving for epsilon, Initial residual = 0.00154551, Final residual = 9.92326e-06, No Iterations 2
smoothSolver:  Solving for k, Initial residual = 0.0175722, Final residual = 9.47874e-06, No Iterations 4
ExecutionTime = 0.08 s  ClockTime = 0 s

Time = 0.12

Courant Number mean: 0.00962802 max: 0.0761185
smoothSolver:  Solving for Ux, Initial residual = 0.0188653, Final residual = 7.97571e-06, No Iterations 5
smoothSolver:  Solving for Uy, Initial residual = 0.0199084, Final residual = 4.73397e-06, No Iterations 5
GAMG:  Solving for p, Initial residual = 0.0172354, Final residual = 0.000313217, No Iterations 2
time step continuity errors : sum local = 1.01425e-07, global = -2.47379e-20, cumulative = 1.1959e-19
GAMG:  Solving for p, Initial residual = 0.000721911, Final residual = 9.52384e-07, No Iterations 5
time step continuity errors : sum local = 3.86977e-10, global = -2.74521e-21, cumulative = 1.16845e-19
smoothSolver:  Solving for epsilon, Initial residual = 0.00146666, Final residual = 9.14889e-06, No Iterations 2
smoothSolver:  Solving for k, Initial residual = 0.0166025, Final residual = 8.99241e-06, No Iterations 4
ExecutionTime = 0.08 s  ClockTime = 0 s

Time = 0.125

Courant Number mean: 0.010004 max: 0.0785186
smoothSolver:  Solving for Ux, Initial residual = 0.0181802, Final residual = 7.42602e-06, No Iterations 5
smoothSolver:  Solving for Uy, Initial residual = 0.0192115, Final residual = 4.36338e-06, No Iterations 5
GAMG:  Solving for p, Initial residual = 0.0179332, Final residual = 0.00034158, No Iterations 2
time step continuity errors : sum local = 1.13417e-07, global = 2.99869e-21, cumulative = 1.19844e-19
GAMG:  Solving for p, Initial residual = 0.000730013, Final residual = 4.53053e-07, No Iterations 6
time step continuity errors : sum local = 1.84529e-10, global = -6.61228e-20, cumulative = 5.3721e-20
smoothSolver:  Solving for epsilon, Initial residual = 0.0013887, Final residual = 8.43457e-06, No Iterations 2
smoothSolver:  Solving for k, Initial residual = 0.0157146, Final residual = 8.54843e-06, No Iterations 4
ExecutionTime = 0.08 s  ClockTime = 0 s

Time = 0.13

Courant Number mean: 0.0103795 max: 0.0809232
smoothSolver:  Solving for Ux, Initial residual = 0.0175278, Final residual = 6.91965e-06, No Iterations 5
smoothSolver:  Solving for Uy, Initial residual = 0.0185374, Final residual = 4.02873e-06, No Iterations 5
GAMG:  Solving for p, Initial residual = 0.0187279, Final residual = 0.000376841, No Iterations 2
time step continuity errors : sum local = 1.28488e-07, global = -4.38406e-21, cumulative = 4.9337e-20
GAMG:  Solving for p, Initial residual = 0.000753944, Final residual = 5.19636e-07, No Iterations 6
time step continuity errors : sum local = 2.16706e-10, global = 4.50813e-21, cumulative = 5.38451e-20
smoothSolver:  Solving for epsilon, Initial residual = 0.00131681, Final residual = 7.79443e-06, No Iterations 2
smoothSolver:  Solving for k, Initial residual = 0.0149197, Final residual = 8.14229e-06, No Iterations 4
ExecutionTime = 0.09 s  ClockTime = 0 s

Time = 0.135

Courant Number mean: 0.0107536 max: 0.0833317
smoothSolver:  Solving for Ux, Initial residual = 0.0169132, Final residual = 6.45523e-06, No Iterations 5
smoothSolver:  Solving for Uy, Initial residual = 0.0178743, Final residual = 3.72438e-06, No Iterations 5
GAMG:  Solving for p, Initial residual = 0.0183983, Final residual = 0.000341188, No Iterations 2
time step continuity errors : sum local = 1.20683e-07, global = -2.41123e-20, cumulative = 2.97328e-20
GAMG:  Solving for p, Initial residual = 0.000707106, Final residual = 8.40603e-07, No Iterations 6
time step continuity errors : sum local = 3.44282e-10, global = 1.23043e-21, cumulative = 3.09632e-20
smoothSolver:  Solving for epsilon, Initial residual = 0.00125674, Final residual = 7.23104e-06, No Iterations 2
smoothSolver:  Solving for k, Initial residual = 0.0141718, Final residual = 7.76922e-06, No Iterations 4
ExecutionTime = 0.09 s  ClockTime = 0 s

Time = 0.14

Courant Number mean: 0.0111299 max: 0.0857452
smoothSolver:  Solving for Ux, Initial residual = 0.0162993, Final residual = 6.01998e-06, No Iterations 5
smoothSolver:  Solving for Uy, Initial residual = 0.0173395, Final residual = 3.44322e-06, No Iterations 5
GAMG:  Solving for p, Initial residual = 0.0162704, Final residual = 0.000287599, No Iterations 2
time step continuity errors : sum local = 1.04227e-07, global = -2.05244e-20, cumulative = 1.04388e-20
GAMG:  Solving for p, Initial residual = 0.00067041, Final residual = 7.23234e-07, No Iterations 6
time step continuity errors : sum local = 3.02968e-10, global = -3.1195e-20, cumulative = -2.07563e-20
smoothSolver:  Solving for epsilon, Initial residual = 0.00120059, Final residual = 6.71098e-06, No Iterations 2
smoothSolver:  Solving for k, Initial residual = 0.013475, Final residual = 7.42543e-06, No Iterations 4
ExecutionTime = 0.09 s  ClockTime = 0 s

Time = 0.145

Courant Number mean: 0.0115044 max: 0.0881668
smoothSolver:  Solving for Ux, Initial residual = 0.0157315, Final residual = 5.62462e-06, No Iterations 5
smoothSolver:  Solving for Uy, Initial residual = 0.0167814, Final residual = 3.18954e-06, No Iterations 5
GAMG:  Solving for p, Initial residual = 0.0189965, Final residual = 0.000356832, No Iterations 2
time step continuity errors : sum local = 1.31263e-07, global = -8.59958e-20, cumulative = -1.06752e-19
GAMG:  Solving for p, Initial residual = 0.000718085, Final residual = 9.83272e-07, No Iterations 6
time step continuity errors : sum local = 4.15441e-10, global = -4.88967e-20, cumulative = -1.55649e-19
smoothSolver:  Solving for epsilon, Initial residual = 0.00114616, Final residual = 6.23639e-06, No Iterations 2
smoothSolver:  Solving for k, Initial residual = 0.012824, Final residual = 7.10715e-06, No Iterations 4
ExecutionTime = 0.1 s  ClockTime = 0 s

Time = 0.15

Courant Number mean: 0.0118765 max: 0.0905965
smoothSolver:  Solving for Ux, Initial residual = 0.015209, Final residual = 5.25604e-06, No Iterations 5
smoothSolver:  Solving for Uy, Initial residual = 0.0163091, Final residual = 2.95757e-06, No Iterations 5
GAMG:  Solving for p, Initial residual = 0.0170913, Final residual = 0.000330153, No Iterations 2
time step continuity errors : sum local = 1.24172e-07, global = 8.1865e-20, cumulative = -7.37837e-20
GAMG:  Solving for p, Initial residual = 0.000685711, Final residual = 6.58167e-07, No Iterations 6
time step continuity errors : sum local = 2.89957e-10, global = -3.99166e-20, cumulative = -1.137e-19
smoothSolver:  Solving for epsilon, Initial residual = 0.00109541, Final residual = 5.81656e-06, No Iterations 2
smoothSolver:  Solving for k, Initial residual = 0.0122198, Final residual = 6.81196e-06, No Iterations 4
ExecutionTime = 0.1 s  ClockTime = 0 s

Time = 0.155

Courant Number mean: 0.0122466 max: 0.0930291
smoothSolver:  Solving for Ux, Initial residual = 0.0147248, Final residual = 4.92205e-06, No Iterations 5
smoothSolver:  Solving for Uy, Initial residual = 0.0157791, Final residual = 2.74822e-06, No Iterations 5
GAMG:  Solving for p, Initial residual = 0.0177404, Final residual = 0.000351557, No Iterations 2
time step continuity errors : sum local = 1.36172e-07, global = -1.17129e-19, cumulative = -2.30829e-19
GAMG:  Solving for p, Initial residual = 0.000705918, Final residual = 6.66012e-07, No Iterations 6
time step continuity errors : sum local = 3.0353e-10, global = 4.46781e-20, cumulative = -1.86151e-19
smoothSolver:  Solving for epsilon, Initial residual = 0.00104365, Final residual = 5.42051e-06, No Iterations 2
smoothSolver:  Solving for k, Initial residual = 0.0116599, Final residual = 6.53753e-06, No Iterations 4
ExecutionTime = 0.1 s  ClockTime = 0 s

Time = 0.16

Courant Number mean: 0.0126163 max: 0.0954601
smoothSolver:  Solving for Ux, Initial residual = 0.014268, Final residual = 4.61168e-06, No Iterations 5
smoothSolver:  Solving for Uy, Initial residual = 0.0152851, Final residual = 2.55816e-06, No Iterations 5
GAMG:  Solving for p, Initial residual = 0.0175992, Final residual = 0.000325721, No Iterations 2
time step continuity errors : sum local = 1.30136e-07, global = -5.53384e-20, cumulative = -2.41489e-19
GAMG:  Solving for p, Initial residual = 0.000678839, Final residual = 8.98885e-07, No Iterations 6
time step continuity errors : sum local = 4.12593e-10, global = -1.26352e-20, cumulative = -2.54124e-19
smoothSolver:  Solving for epsilon, Initial residual = 0.000999189, Final residual = 5.07554e-06, No Iterations 2
smoothSolver:  Solving for k, Initial residual = 0.0111656, Final residual = 6.28235e-06, No Iterations 4
ExecutionTime = 0.1 s  ClockTime = 0 s

Time = 0.165

Courant Number mean: 0.0129849 max: 0.0978844
smoothSolver:  Solving for Ux, Initial residual = 0.0138241, Final residual = 4.31848e-06, No Iterations 5
smoothSolver:  Solving for Uy, Initial residual = 0.0148516, Final residual = 2.38266e-06, No Iterations 5
GAMG:  Solving for p, Initial residual = 0.0174247, Final residual = 0.000337817, No Iterations 2
time step continuity errors : sum local = 1.3879e-07, global = 3.38939e-20, cumulative = -2.20231e-19
GAMG:  Solving for p, Initial residual = 0.000679401, Final residual = 8.31294e-07, No Iterations 6
time step continuity errors : sum local = 3.94052e-10, global = -1.065e-20, cumulative = -2.3088e-19
smoothSolver:  Solving for epsilon, Initial residual = 0.0009576, Final residual = 4.74302e-06, No Iterations 2
smoothSolver:  Solving for k, Initial residual = 0.0106995, Final residual = 6.04442e-06, No Iterations 4
ExecutionTime = 0.11 s  ClockTime = 0 s

Time = 0.17

Courant Number mean: 0.0133516 max: 0.100297
smoothSolver:  Solving for Ux, Initial residual = 0.0134053, Final residual = 4.04936e-06, No Iterations 5
smoothSolver:  Solving for Uy, Initial residual = 0.0144519, Final residual = 9.4522e-06, No Iterations 4
GAMG:  Solving for p, Initial residual = 0.0195598, Final residual = 0.000366769, No Iterations 2
time step continuity errors : sum local = 1.54619e-07, global = 1.06934e-19, cumulative = -1.23947e-19
GAMG:  Solving for p, Initial residual = 0.000710265, Final residual = 9.32135e-07, No Iterations 6
time step continuity errors : sum local = 4.51965e-10, global = 5.44802e-20, cumulative = -6.94665e-20
smoothSolver:  Solving for epsilon, Initial residual = 0.000916513, Final residual = 4.44169e-06, No Iterations 2
smoothSolver:  Solving for k, Initial residual = 0.0102607, Final residual = 5.82265e-06, No Iterations 4
ExecutionTime = 0.11 s  ClockTime = 0 s

Time = 0.175

Courant Number mean: 0.0137151 max: 0.102692
smoothSolver:  Solving for Ux, Initial residual = 0.0130032, Final residual = 3.79909e-06, No Iterations 5
smoothSolver:  Solving for Uy, Initial residual = 0.0141024, Final residual = 8.87597e-06, No Iterations 4
GAMG:  Solving for p, Initial residual = 0.0210322, Final residual = 0.000417648, No Iterations 2
time step continuity errors : sum local = 1.80729e-07, global = -2.50946e-20, cumulative = -9.45611e-20
GAMG:  Solving for p, Initial residual = 0.00074479, Final residual = 6.32418e-07, No Iterations 6
time step continuity errors : sum local = 3.25691e-10, global = -7.9916e-20, cumulative = -1.74477e-19
smoothSolver:  Solving for epsilon, Initial residual = 0.000876804, Final residual = 4.16273e-06, No Iterations 2
smoothSolver:  Solving for k, Initial residual = 0.00984806, Final residual = 5.61462e-06, No Iterations 4
ExecutionTime = 0.11 s  ClockTime = 0 s

Time = 0.18

Courant Number mean: 0.0140759 max: 0.105073
smoothSolver:  Solving for Ux, Initial residual = 0.0126208, Final residual = 3.57127e-06, No Iterations 5
smoothSolver:  Solving for Uy, Initial residual = 0.0137196, Final residual = 8.37103e-06, No Iterations 4
GAMG:  Solving for p, Initial residual = 0.0174898, Final residual = 0.000340373, No Iterations 2
time step continuity errors : sum local = 1.53623e-07, global = -9.82484e-20, cumulative = -2.72725e-19
GAMG:  Solving for p, Initial residual = 0.000641652, Final residual = 7.83663e-07, No Iterations 6
time step continuity errors : sum local = 4.03025e-10, global = -1.61197e-20, cumulative = -2.88845e-19
smoothSolver:  Solving for epsilon, Initial residual = 0.000843278, Final residual = 3.92108e-06, No Iterations 2
smoothSolver:  Solving for k, Initial residual = 0.00946635, Final residual = 5.41967e-06, No Iterations 4
ExecutionTime = 0.11 s  ClockTime = 0 s

Time = 0.185

Courant Number mean: 0.0144363 max: 0.107449
smoothSolver:  Solving for Ux, Initial residual = 0.0122293, Final residual = 3.34321e-06, No Iterations 5
smoothSolver:  Solving for Uy, Initial residual = 0.0133381, Final residual = 7.89854e-06, No Iterations 4
GAMG:  Solving for p, Initial residual = 0.0171093, Final residual = 0.000350809, No Iterations 2
time step continuity errors : sum local = 1.62513e-07, global = -3.26323e-20, cumulative = -3.21477e-19
GAMG:  Solving for p, Initial residual = 0.000659949, Final residual = 8.62346e-07, No Iterations 6
time step continuity errors : sum local = 4.56353e-10, global = 4.25171e-20, cumulative = -2.7896e-19
smoothSolver:  Solving for epsilon, Initial residual = 0.000809006, Final residual = 3.69191e-06, No Iterations 2
smoothSolver:  Solving for k, Initial residual = 0.00912748, Final residual = 5.23623e-06, No Iterations 4
ExecutionTime = 0.11 s  ClockTime = 0 s

Time = 0.19

Courant Number mean: 0.0147956 max: 0.109805
smoothSolver:  Solving for Ux, Initial residual = 0.0118571, Final residual = 3.13744e-06, No Iterations 5
smoothSolver:  Solving for Uy, Initial residual = 0.0129947, Final residual = 7.46473e-06, No Iterations 4
GAMG:  Solving for p, Initial residual = 0.0172852, Final residual = 0.000356907, No Iterations 2
time step continuity errors : sum local = 1.69914e-07, global = 2.7297e-20, cumulative = -2.51663e-19
GAMG:  Solving for p, Initial residual = 0.00065185, Final residual = 7.76603e-07, No Iterations 6
time step continuity errors : sum local = 4.23624e-10, global = -4.57431e-20, cumulative = -2.97406e-19
smoothSolver:  Solving for epsilon, Initial residual = 0.000777822, Final residual = 3.48283e-06, No Iterations 2
smoothSolver:  Solving for k, Initial residual = 0.00881079, Final residual = 5.06343e-06, No Iterations 4
ExecutionTime = 0.11 s  ClockTime = 0 s

Time = 0.195

Courant Number mean: 0.0151515 max: 0.112148
smoothSolver:  Solving for Ux, Initial residual = 0.0114952, Final residual = 2.94561e-06, No Iterations 5
smoothSolver:  Solving for Uy, Initial residual = 0.0126566, Final residual = 7.06316e-06, No Iterations 4
GAMG:  Solving for p, Initial residual = 0.0136297, Final residual = 0.000279333, No Iterations 2
time step continuity errors : sum local = 1.36759e-07, global = 6.74979e-20, cumulative = -2.29909e-19
GAMG:  Solving for p, Initial residual = 0.00059749, Final residual = 4.94945e-07, No Iterations 6
time step continuity errors : sum local = 2.73071e-10, global = -6.66191e-20, cumulative = -2.96528e-19
smoothSolver:  Solving for epsilon, Initial residual = 0.000747837, Final residual = 3.29166e-06, No Iterations 2
smoothSolver:  Solving for k, Initial residual = 0.00850829, Final residual = 4.89938e-06, No Iterations 4
ExecutionTime = 0.12 s  ClockTime = 0 s

Time = 0.2

Courant Number mean: 0.0155042 max: 0.114509
smoothSolver:  Solving for Ux, Initial residual = 0.0111697, Final residual = 2.7567e-06, No Iterations 5
smoothSolver:  Solving for Uy, Initial residual = 0.0122646, Final residual = 6.68061e-06, No Iterations 4
GAMG:  Solving for p, Initial residual = 0.0117737, Final residual = 0.000323134, No Iterations 2
time step continuity errors : sum local = 1.59463e-07, global = -2.61402e-20, cumulative = -3.22668e-19
GAMG:  Solving for p, Initial residual = 0.000628058, Final residual = 7.25832e-07, No Iterations 6
time step continuity errors : sum local = 4.13832e-10, global = 8.7433e-20, cumulative = -2.35235e-19
smoothSolver:  Solving for epsilon, Initial residual = 0.000718648, Final residual = 3.11048e-06, No Iterations 2
smoothSolver:  Solving for k, Initial residual = 0.00822069, Final residual = 4.74326e-06, No Iterations 4
ExecutionTime = 0.12 s  ClockTime = 0 s

Time = 0.205

Courant Number mean: 0.0158545 max: 0.116799
smoothSolver:  Solving for Ux, Initial residual = 0.010862, Final residual = 2.60112e-06, No Iterations 5
smoothSolver:  Solving for Uy, Initial residual = 0.0119829, Final residual = 6.34443e-06, No Iterations 4
GAMG:  Solving for p, Initial residual = 0.0134066, Final residual = 0.000305344, No Iterations 2
time step continuity errors : sum local = 1.54051e-07, global = 6.43753e-20, cumulative = -1.7086e-19
GAMG:  Solving for p, Initial residual = 0.000534808, Final residual = 5.39872e-07, No Iterations 6
time step continuity errors : sum local = 3.105e-10, global = 3.95599e-20, cumulative = -1.313e-19
smoothSolver:  Solving for epsilon, Initial residual = 0.000691562, Final residual = 2.94994e-06, No Iterations 2
smoothSolver:  Solving for k, Initial residual = 0.00797016, Final residual = 4.59482e-06, No Iterations 4
ExecutionTime = 0.12 s  ClockTime = 0 s

Time = 0.21

Courant Number mean: 0.0162024 max: 0.119224
smoothSolver:  Solving for Ux, Initial residual = 0.0105447, Final residual = 9.80436e-06, No Iterations 4
smoothSolver:  Solving for Uy, Initial residual = 0.0116843, Final residual = 6.01828e-06, No Iterations 4
GAMG:  Solving for p, Initial residual = 0.0128251, Final residual = 0.000318288, No Iterations 2
time step continuity errors : sum local = 1.63624e-07, global = -2.02349e-20, cumulative = -1.51535e-19
GAMG:  Solving for p, Initial residual = 0.000601745, Final residual = 5.65911e-07, No Iterations 6
time step continuity errors : sum local = 3.3343e-10, global = 3.28494e-20, cumulative = -1.18685e-19
smoothSolver:  Solving for epsilon, Initial residual = 0.000667066, Final residual = 2.79757e-06, No Iterations 2
smoothSolver:  Solving for k, Initial residual = 0.00772955, Final residual = 4.45475e-06, No Iterations 4
ExecutionTime = 0.12 s  ClockTime = 0 s

Time = 0.215

Courant Number mean: 0.0165465 max: 0.12177
smoothSolver:  Solving for Ux, Initial residual = 0.0102439, Final residual = 9.29036e-06, No Iterations 4
smoothSolver:  Solving for Uy, Initial residual = 0.0114219, Final residual = 5.7264e-06, No Iterations 4
GAMG:  Solving for p, Initial residual = 0.0120337, Final residual = 0.000309024, No Iterations 2
time step continuity errors : sum local = 1.61695e-07, global = 1.75511e-20, cumulative = -1.01134e-19
GAMG:  Solving for p, Initial residual = 0.000573042, Final residual = 5.42171e-07, No Iterations 6
time step continuity errors : sum local = 3.2534e-10, global = -6.0167e-20, cumulative = -1.61301e-19
smoothSolver:  Solving for epsilon, Initial residual = 0.000645076, Final residual = 2.65591e-06, No Iterations 2
smoothSolver:  Solving for k, Initial residual = 0.00750291, Final residual = 4.32173e-06, No Iterations 4
ExecutionTime = 0.13 s  ClockTime = 0 s

Time = 0.22

Courant Number mean: 0.0168908 max: 0.124287
smoothSolver:  Solving for Ux, Initial residual = 0.00995889, Final residual = 8.80579e-06, No Iterations 4
smoothSolver:  Solving for Uy, Initial residual = 0.0111776, Final residual = 5.44982e-06, No Iterations 4
GAMG:  Solving for p, Initial residual = 0.0107596, Final residual = 0.000320024, No Iterations 2
time step continuity errors : sum local = 1.6997e-07, global = -1.12186e-20, cumulative = -1.7252e-19
GAMG:  Solving for p, Initial residual = 0.000629504, Final residual = 6.13444e-07, No Iterations 6
time step continuity errors : sum local = 3.73313e-10, global = 4.49883e-20, cumulative = -1.27531e-19
smoothSolver:  Solving for epsilon, Initial residual = 0.000624563, Final residual = 2.5255e-06, No Iterations 2
smoothSolver:  Solving for k, Initial residual = 0.00729327, Final residual = 4.19513e-06, No Iterations 4
ExecutionTime = 0.13 s  ClockTime = 0 s

Time = 0.225

Courant Number mean: 0.0172328 max: 0.126772
smoothSolver:  Solving for Ux, Initial residual = 0.00967902, Final residual = 8.35992e-06, No Iterations 4
smoothSolver:  Solving for Uy, Initial residual = 0.0109699, Final residual = 5.20034e-06, No Iterations 4
GAMG:  Solving for p, Initial residual = 0.00995151, Final residual = 0.000300693, No Iterations 2
time step continuity errors : sum local = 1.62204e-07, global = -4.35288e-21, cumulative = -1.31884e-19
GAMG:  Solving for p, Initial residual = 0.000575246, Final residual = 4.94935e-07, No Iterations 6
time step continuity errors : sum local = 3.05753e-10, global = -4.80695e-20, cumulative = -1.79954e-19
smoothSolver:  Solving for epsilon, Initial residual = 0.000604466, Final residual = 2.40701e-06, No Iterations 2
smoothSolver:  Solving for k, Initial residual = 0.00710955, Final residual = 4.07367e-06, No Iterations 4
ExecutionTime = 0.13 s  ClockTime = 0 s

Time = 0.23

Courant Number mean: 0.0175709 max: 0.129225
smoothSolver:  Solving for Ux, Initial residual = 0.00940773, Final residual = 7.92669e-06, No Iterations 4
smoothSolver:  Solving for Uy, Initial residual = 0.0107452, Final residual = 4.96508e-06, No Iterations 4
GAMG:  Solving for p, Initial residual = 0.00976125, Final residual = 0.000296313, No Iterations 2
time step continuity errors : sum local = 1.62261e-07, global = 5.24536e-20, cumulative = -1.275e-19
GAMG:  Solving for p, Initial residual = 0.000567491, Final residual = 5.43141e-07, No Iterations 6
time step continuity errors : sum local = 3.3963e-10, global = -4.18864e-20, cumulative = -1.69387e-19
smoothSolver:  Solving for epsilon, Initial residual = 0.000585725, Final residual = 2.29686e-06, No Iterations 2
smoothSolver:  Solving for k, Initial residual = 0.00693268, Final residual = 3.95835e-06, No Iterations 4
ExecutionTime = 0.13 s  ClockTime = 0 s

Time = 0.235

Courant Number mean: 0.0179053 max: 0.131682
smoothSolver:  Solving for Ux, Initial residual = 0.00914867, Final residual = 7.52143e-06, No Iterations 4
smoothSolver:  Solving for Uy, Initial residual = 0.0105305, Final residual = 4.74879e-06, No Iterations 4
GAMG:  Solving for p, Initial residual = 0.00996529, Final residual = 0.000311818, No Iterations 2
time step continuity errors : sum local = 1.72675e-07, global = 4.13487e-20, cumulative = -1.28038e-19
GAMG:  Solving for p, Initial residual = 0.000584119, Final residual = 5.23322e-07, No Iterations 6
time step continuity errors : sum local = 3.31908e-10, global = -1.40631e-19, cumulative = -2.68669e-19
smoothSolver:  Solving for epsilon, Initial residual = 0.000568084, Final residual = 2.19418e-06, No Iterations 2
smoothSolver:  Solving for k, Initial residual = 0.00676128, Final residual = 3.84819e-06, No Iterations 4
ExecutionTime = 0.14 s  ClockTime = 0 s

Time = 0.24

Courant Number mean: 0.0182399 max: 0.134111
smoothSolver:  Solving for Ux, Initial residual = 0.0088944, Final residual = 7.14177e-06, No Iterations 4
smoothSolver:  Solving for Uy, Initial residual = 0.0103387, Final residual = 4.54893e-06, No Iterations 4
GAMG:  Solving for p, Initial residual = 0.0103057, Final residual = 0.000320084, No Iterations 2
time step continuity errors : sum local = 1.7922e-07, global = 1.27387e-20, cumulative = -2.5593e-19
GAMG:  Solving for p, Initial residual = 0.000595372, Final residual = 5.29475e-07, No Iterations 6
time step continuity errors : sum local = 3.39604e-10, global = -1.00053e-19, cumulative = -3.55983e-19
smoothSolver:  Solving for epsilon, Initial residual = 0.000558172, Final residual = 2.11241e-06, No Iterations 2
smoothSolver:  Solving for k, Initial residual = 0.00661489, Final residual = 3.74365e-06, No Iterations 4
ExecutionTime = 0.14 s  ClockTime = 0 s

Time = 0.245

Courant Number mean: 0.0185734 max: 0.13651
smoothSolver:  Solving for Ux, Initial residual = 0.00864555, Final residual = 6.77922e-06, No Iterations 4
smoothSolver:  Solving for Uy, Initial residual = 0.0101524, Final residual = 4.36117e-06, No Iterations 4
GAMG:  Solving for p, Initial residual = 0.0103873, Final residual = 0.000321596, No Iterations 2
time step continuity errors : sum local = 1.82135e-07, global = 2.18169e-21, cumulative = -3.53801e-19
GAMG:  Solving for p, Initial residual = 0.000596747, Final residual = 5.30082e-07, No Iterations 6
time step continuity errors : sum local = 3.43886e-10, global = 9.08348e-20, cumulative = -2.62967e-19
smoothSolver:  Solving for epsilon, Initial residual = 0.000545721, Final residual = 2.02576e-06, No Iterations 2
smoothSolver:  Solving for k, Initial residual = 0.00647256, Final residual = 3.64333e-06, No Iterations 4
ExecutionTime = 0.14 s  ClockTime = 0 s

Time = 0.25

Courant Number mean: 0.0189034 max: 0.138875
smoothSolver:  Solving for Ux, Initial residual = 0.00841325, Final residual = 6.43658e-06, No Iterations 4
smoothSolver:  Solving for Uy, Initial residual = 0.00997325, Final residual = 4.18836e-06, No Iterations 4
GAMG:  Solving for p, Initial residual = 0.0143783, Final residual = 0.000356147, No Iterations 2
time step continuity errors : sum local = 2.01924e-07, global = -4.49056e-20, cumulative = -3.07872e-19
GAMG:  Solving for p, Initial residual = 0.000655525, Final residual = 4.6649e-07, No Iterations 6
time step continuity errors : sum local = 3.02323e-10, global = -6.67121e-20, cumulative = -3.74584e-19
smoothSolver:  Solving for epsilon, Initial residual = 0.000534211, Final residual = 1.9529e-06, No Iterations 2
smoothSolver:  Solving for k, Initial residual = 0.00634154, Final residual = 3.54723e-06, No Iterations 4
ExecutionTime = 0.15 s  ClockTime = 0 s

Time = 0.255

Courant Number mean: 0.0192292 max: 0.141205
smoothSolver:  Solving for Ux, Initial residual = 0.0082153, Final residual = 6.10232e-06, No Iterations 4
smoothSolver:  Solving for Uy, Initial residual = 0.00974538, Final residual = 4.019e-06, No Iterations 4
GAMG:  Solving for p, Initial residual = 0.0129527, Final residual = 0.000318102, No Iterations 2
time step continuity errors : sum local = 1.82493e-07, global = 2.30597e-19, cumulative = -1.43987e-19
GAMG:  Solving for p, Initial residual = 0.000661938, Final residual = 7.25902e-07, No Iterations 6
time step continuity errors : sum local = 4.75725e-10, global = 2.11965e-21, cumulative = -1.41867e-19
smoothSolver:  Solving for epsilon, Initial residual = 0.000522005, Final residual = 1.87533e-06, No Iterations 2
smoothSolver:  Solving for k, Initial residual = 0.00622607, Final residual = 3.45531e-06, No Iterations 4
ExecutionTime = 0.15 s  ClockTime = 0 s

Time = 0.26

Courant Number mean: 0.0195534 max: 0.143501
smoothSolver:  Solving for Ux, Initial residual = 0.00798748, Final residual = 5.81255e-06, No Iterations 4
smoothSolver:  Solving for Uy, Initial residual = 0.00962353, Final residual = 3.88547e-06, No Iterations 4
GAMG:  Solving for p, Initial residual = 0.0173026, Final residual = 0.000424965, No Iterations 2
time step continuity errors : sum local = 2.41973e-07, global = -3.97047e-20, cumulative = -1.81572e-19
GAMG:  Solving for p, Initial residual = 0.000794786, Final residual = 7.44413e-07, No Iterations 6
time step continuity errors : sum local = 4.84177e-10, global = 4.21345e-20, cumulative = -1.39437e-19
smoothSolver:  Solving for epsilon, Initial residual = 0.000509725, Final residual = 1.80331e-06, No Iterations 2
smoothSolver:  Solving for k, Initial residual = 0.00611632, Final residual = 3.36729e-06, No Iterations 4
ExecutionTime = 0.15 s  ClockTime = 0 s

Time = 0.265

Courant Number mean: 0.0198761 max: 0.145801
smoothSolver:  Solving for Ux, Initial residual = 0.00778489, Final residual = 5.54522e-06, No Iterations 4
smoothSolver:  Solving for Uy, Initial residual = 0.00952642, Final residual = 3.76951e-06, No Iterations 4
GAMG:  Solving for p, Initial residual = 0.0119687, Final residual = 0.000321679, No Iterations 2
time step continuity errors : sum local = 1.84929e-07, global = 7.85001e-20, cumulative = -6.09374e-20
GAMG:  Solving for p, Initial residual = 0.000576581, Final residual = 5.56304e-07, No Iterations 6
time step continuity errors : sum local = 3.64399e-10, global = 2.87083e-20, cumulative = -3.22291e-20
smoothSolver:  Solving for epsilon, Initial residual = 0.000500278, Final residual = 1.73785e-06, No Iterations 2
smoothSolver:  Solving for k, Initial residual = 0.00601929, Final residual = 3.28187e-06, No Iterations 4
ExecutionTime = 0.15 s  ClockTime = 0 s

Time = 0.27

Courant Number mean: 0.0201951 max: 0.148095
smoothSolver:  Solving for Ux, Initial residual = 0.00758424, Final residual = 5.2725e-06, No Iterations 4
smoothSolver:  Solving for Uy, Initial residual = 0.00937433, Final residual = 3.64268e-06, No Iterations 4
GAMG:  Solving for p, Initial residual = 0.00996995, Final residual = 0.000310847, No Iterations 2
time step continuity errors : sum local = 1.79969e-07, global = 1.978e-20, cumulative = -1.24491e-20
GAMG:  Solving for p, Initial residual = 0.000557316, Final residual = 6.43938e-07, No Iterations 6
time step continuity errors : sum local = 4.23986e-10, global = 3.5455e-20, cumulative = 2.30059e-20
smoothSolver:  Solving for epsilon, Initial residual = 0.000490991, Final residual = 1.67866e-06, No Iterations 2
smoothSolver:  Solving for k, Initial residual = 0.00595393, Final residual = 3.20107e-06, No Iterations 4
ExecutionTime = 0.16 s  ClockTime = 0 s

Time = 0.275

Courant Number mean: 0.0205097 max: 0.150356
smoothSolver:  Solving for Ux, Initial residual = 0.00738694, Final residual = 5.0126e-06, No Iterations 4
smoothSolver:  Solving for Uy, Initial residual = 0.00922336, Final residual = 3.52368e-06, No Iterations 4
GAMG:  Solving for p, Initial residual = 0.00968537, Final residual = 0.000308004, No Iterations 2
time step continuity errors : sum local = 1.80022e-07, global = 4.57948e-20, cumulative = 6.88007e-20
GAMG:  Solving for p, Initial residual = 0.000556031, Final residual = 6.60342e-07, No Iterations 6
time step continuity errors : sum local = 4.38957e-10, global = 1.97396e-19, cumulative = 2.66197e-19
smoothSolver:  Solving for epsilon, Initial residual = 0.000482541, Final residual = 1.62028e-06, No Iterations 2
smoothSolver:  Solving for k, Initial residual = 0.00592111, Final residual = 3.12424e-06, No Iterations 4
ExecutionTime = 0.16 s  ClockTime = 0 s

Time = 0.28

Courant Number mean: 0.02082 max: 0.152584
smoothSolver:  Solving for Ux, Initial residual = 0.00719444, Final residual = 4.76551e-06, No Iterations 4
smoothSolver:  Solving for Uy, Initial residual = 0.00907138, Final residual = 3.41612e-06, No Iterations 4
GAMG:  Solving for p, Initial residual = 0.00962526, Final residual = 0.000310547, No Iterations 2
time step continuity errors : sum local = 1.8318e-07, global = -1.05703e-19, cumulative = 1.60494e-19
GAMG:  Solving for p, Initial residual = 0.000561188, Final residual = 6.85285e-07, No Iterations 6
time step continuity errors : sum local = 4.5993e-10, global = 1.04949e-21, cumulative = 1.61543e-19
smoothSolver:  Solving for epsilon, Initial residual = 0.000473963, Final residual = 1.5712e-06, No Iterations 2
smoothSolver:  Solving for k, Initial residual = 0.00589809, Final residual = 3.05043e-06, No Iterations 4
ExecutionTime = 0.16 s  ClockTime = 0 s

Time = 0.285

Courant Number mean: 0.0211259 max: 0.154777
smoothSolver:  Solving for Ux, Initial residual = 0.00700884, Final residual = 4.53156e-06, No Iterations 4
smoothSolver:  Solving for Uy, Initial residual = 0.00892318, Final residual = 3.3158e-06, No Iterations 4
GAMG:  Solving for p, Initial residual = 0.00992479, Final residual = 0.000317738, No Iterations 2
time step continuity errors : sum local = 1.89283e-07, global = -6.71464e-20, cumulative = 9.43968e-20
GAMG:  Solving for p, Initial residual = 0.000570044, Final residual = 7.50547e-07, No Iterations 6
time step continuity errors : sum local = 5.08564e-10, global = 2.50584e-20, cumulative = 1.19455e-19
smoothSolver:  Solving for epsilon, Initial residual = 0.00046573, Final residual = 1.52193e-06, No Iterations 2
smoothSolver:  Solving for k, Initial residual = 0.00587544, Final residual = 2.97843e-06, No Iterations 4
ExecutionTime = 0.16 s  ClockTime = 0 s

Time = 0.29

Courant Number mean: 0.0214284 max: 0.15693
smoothSolver:  Solving for Ux, Initial residual = 0.00682756, Final residual = 4.31107e-06, No Iterations 4
smoothSolver:  Solving for Uy, Initial residual = 0.00878706, Final residual = 3.21978e-06, No Iterations 4
GAMG:  Solving for p, Initial residual = 0.00948912, Final residual = 0.000308262, No Iterations 2
time step continuity errors : sum local = 1.85682e-07, global = 2.52518e-19, cumulative = 3.71973e-19
GAMG:  Solving for p, Initial residual = 0.000564308, Final residual = 6.62346e-07, No Iterations 6
time step continuity errors : sum local = 4.54916e-10, global = 6.79219e-20, cumulative = 4.39895e-19
smoothSolver:  Solving for epsilon, Initial residual = 0.000458553, Final residual = 1.47677e-06, No Iterations 2
smoothSolver:  Solving for k, Initial residual = 0.00585448, Final residual = 2.90799e-06, No Iterations 4
ExecutionTime = 0.17 s  ClockTime = 0 s

Time = 0.295

Courant Number mean: 0.0217284 max: 0.159121
smoothSolver:  Solving for Ux, Initial residual = 0.00665325, Final residual = 4.10121e-06, No Iterations 4
smoothSolver:  Solving for Uy, Initial residual = 0.00865077, Final residual = 3.13046e-06, No Iterations 4
GAMG:  Solving for p, Initial residual = 0.00950218, Final residual = 0.000311316, No Iterations 2
time step continuity errors : sum local = 1.89193e-07, global = -1.50692e-19, cumulative = 2.89203e-19
GAMG:  Solving for p, Initial residual = 0.000563149, Final residual = 6.91845e-07, No Iterations 6
time step continuity errors : sum local = 4.79419e-10, global = -5.25311e-20, cumulative = 2.36672e-19
smoothSolver:  Solving for epsilon, Initial residual = 0.000451416, Final residual = 1.43441e-06, No Iterations 2
smoothSolver:  Solving for k, Initial residual = 0.00583059, Final residual = 2.84029e-06, No Iterations 4
ExecutionTime = 0.17 s  ClockTime = 0 s

Time = 0.3

Courant Number mean: 0.0220248 max: 0.161291
smoothSolver:  Solving for Ux, Initial residual = 0.00648326, Final residual = 3.90385e-06, No Iterations 4
smoothSolver:  Solving for Uy, Initial residual = 0.00851875, Final residual = 3.04882e-06, No Iterations 4
GAMG:  Solving for p, Initial residual = 0.00911685, Final residual = 0.000318899, No Iterations 2
time step continuity errors : sum local = 1.95728e-07, global = 2.22367e-19, cumulative = 4.59039e-19
GAMG:  Solving for p, Initial residual = 0.000559831, Final residual = 8.01846e-07, No Iterations 6
time step continuity errors : sum local = 5.59905e-10, global = -9.00128e-20, cumulative = 3.69026e-19
smoothSolver:  Solving for epsilon, Initial residual = 0.000443739, Final residual = 1.39461e-06, No Iterations 2
smoothSolver:  Solving for k, Initial residual = 0.00580323, Final residual = 2.775e-06, No Iterations 4
ExecutionTime = 0.17 s  ClockTime = 0 s

Time = 0.305

Courant Number mean: 0.0223166 max: 0.163423
smoothSolver:  Solving for Ux, Initial residual = 0.00631824, Final residual = 3.71912e-06, No Iterations 4
smoothSolver:  Solving for Uy, Initial residual = 0.0084023, Final residual = 2.97214e-06, No Iterations 4
GAMG:  Solving for p, Initial residual = 0.00932372, Final residual = 0.00032046, No Iterations 2
time step continuity errors : sum local = 1.9877e-07, global = 1.09426e-19, cumulative = 4.78452e-19
GAMG:  Solving for p, Initial residual = 0.000560003, Final residual = 8.00622e-07, No Iterations 6
time step continuity errors : sum local = 5.65195e-10, global = 3.68095e-21, cumulative = 4.82133e-19
smoothSolver:  Solving for epsilon, Initial residual = 0.000436936, Final residual = 1.35672e-06, No Iterations 2
smoothSolver:  Solving for k, Initial residual = 0.00577716, Final residual = 2.7116e-06, No Iterations 4
ExecutionTime = 0.17 s  ClockTime = 0 s

Time = 0.31

Courant Number mean: 0.0226047 max: 0.165524
smoothSolver:  Solving for Ux, Initial residual = 0.00615823, Final residual = 3.5438e-06, No Iterations 4
smoothSolver:  Solving for Uy, Initial residual = 0.00828905, Final residual = 2.89563e-06, No Iterations 4
GAMG:  Solving for p, Initial residual = 0.00949448, Final residual = 0.000328595, No Iterations 2
time step continuity errors : sum local = 2.05653e-07, global = 2.41847e-20, cumulative = 5.06317e-19
GAMG:  Solving for p, Initial residual = 0.000558907, Final residual = 7.80803e-07, No Iterations 6
time step continuity errors : sum local = 5.56831e-10, global = -4.19742e-20, cumulative = 4.64343e-19
smoothSolver:  Solving for epsilon, Initial residual = 0.000430458, Final residual = 1.32145e-06, No Iterations 2
smoothSolver:  Solving for k, Initial residual = 0.00575282, Final residual = 2.65034e-06, No Iterations 4
ExecutionTime = 0.18 s  ClockTime = 0 s

Time = 0.315

Courant Number mean: 0.0228891 max: 0.167598
smoothSolver:  Solving for Ux, Initial residual = 0.00600669, Final residual = 3.37519e-06, No Iterations 4
smoothSolver:  Solving for Uy, Initial residual = 0.00817689, Final residual = 2.82708e-06, No Iterations 4
GAMG:  Solving for p, Initial residual = 0.00970153, Final residual = 0.00033293, No Iterations 2
time step continuity errors : sum local = 2.10382e-07, global = -1.0287e-19, cumulative = 3.61473e-19
GAMG:  Solving for p, Initial residual = 0.000558539, Final residual = 8.41717e-07, No Iterations 6
time step continuity errors : sum local = 6.05468e-10, global = 5.27431e-20, cumulative = 4.14216e-19
smoothSolver:  Solving for epsilon, Initial residual = 0.000423734, Final residual = 1.28865e-06, No Iterations 2
smoothSolver:  Solving for k, Initial residual = 0.00572548, Final residual = 2.59105e-06, No Iterations 4
ExecutionTime = 0.18 s  ClockTime = 0 s

Time = 0.32

Courant Number mean: 0.0231701 max: 0.169638
smoothSolver:  Solving for Ux, Initial residual = 0.00586209, Final residual = 3.216e-06, No Iterations 4
smoothSolver:  Solving for Uy, Initial residual = 0.0080734, Final residual = 2.76062e-06, No Iterations 4
GAMG:  Solving for p, Initial residual = 0.00947124, Final residual = 0.000325655, No Iterations 2
time step continuity errors : sum local = 2.0777e-07, global = 4.504e-20, cumulative = 4.59256e-19
GAMG:  Solving for p, Initial residual = 0.00056205, Final residual = 7.74923e-07, No Iterations 6
time step continuity errors : sum local = 5.64113e-10, global = -7.05792e-20, cumulative = 3.88677e-19
smoothSolver:  Solving for epsilon, Initial residual = 0.000416756, Final residual = 1.25793e-06, No Iterations 2
smoothSolver:  Solving for k, Initial residual = 0.00569526, Final residual = 2.53243e-06, No Iterations 4
ExecutionTime = 0.18 s  ClockTime = 0 s

Time = 0.325

Courant Number mean: 0.0234469 max: 0.171641
smoothSolver:  Solving for Ux, Initial residual = 0.00572359, Final residual = 3.06343e-06, No Iterations 4
smoothSolver:  Solving for Uy, Initial residual = 0.00796741, Final residual = 2.69753e-06, No Iterations 4
GAMG:  Solving for p, Initial residual = 0.0088681, Final residual = 0.000332598, No Iterations 2
time step continuity errors : sum local = 2.1425e-07, global = 1.30176e-20, cumulative = 4.01694e-19
GAMG:  Solving for p, Initial residual = 0.000555961, Final residual = 9.22599e-07, No Iterations 6
time step continuity errors : sum local = 6.75654e-10, global = 4.38509e-20, cumulative = 4.45545e-19
smoothSolver:  Solving for epsilon, Initial residual = 0.000410852, Final residual = 1.22849e-06, No Iterations 2
smoothSolver:  Solving for k, Initial residual = 0.00566413, Final residual = 2.47652e-06, No Iterations 4
ExecutionTime = 0.18 s  ClockTime = 0 s

Time = 0.33

Courant Number mean: 0.0237196 max: 0.173616
smoothSolver:  Solving for Ux, Initial residual = 0.00559679, Final residual = 2.92071e-06, No Iterations 4
smoothSolver:  Solving for Uy, Initial residual = 0.00787309, Final residual = 2.63721e-06, No Iterations 4
GAMG:  Solving for p, Initial residual = 0.00909645, Final residual = 0.000336652, No Iterations 2
time step continuity errors : sum local = 2.18834e-07, global = 3.50104e-20, cumulative = 4.80556e-19
GAMG:  Solving for p, Initial residual = 0.000546984, Final residual = 9.13753e-07, No Iterations 6
time step continuity errors : sum local = 6.75747e-10, global = 1.35389e-19, cumulative = 6.15944e-19
smoothSolver:  Solving for epsilon, Initial residual = 0.000405091, Final residual = 1.20061e-06, No Iterations 2
smoothSolver:  Solving for k, Initial residual = 0.00563248, Final residual = 2.42296e-06, No Iterations 4
ExecutionTime = 0.19 s  ClockTime = 0 s

Time = 0.335

Courant Number mean: 0.0239887 max: 0.175575
smoothSolver:  Solving for Ux, Initial residual = 0.00547414, Final residual = 2.78412e-06, No Iterations 4
smoothSolver:  Solving for Uy, Initial residual = 0.00777735, Final residual = 2.57875e-06, No Iterations 4
GAMG:  Solving for p, Initial residual = 0.00901274, Final residual = 0.000347708, No Iterations 2
time step continuity errors : sum local = 2.27912e-07, global = 3.09572e-20, cumulative = 6.46902e-19
GAMG:  Solving for p, Initial residual = 0.000549974, Final residual = 8.85191e-07, No Iterations 6
time step continuity errors : sum local = 6.60449e-10, global = -1.45568e-19, cumulative = 5.01333e-19
smoothSolver:  Solving for epsilon, Initial residual = 0.000399539, Final residual = 1.17411e-06, No Iterations 2
smoothSolver:  Solving for k, Initial residual = 0.00559942, Final residual = 2.3713e-06, No Iterations 4
ExecutionTime = 0.19 s  ClockTime = 0 s

Time = 0.34

Courant Number mean: 0.0242544 max: 0.177551
smoothSolver:  Solving for Ux, Initial residual = 0.00535288, Final residual = 2.65372e-06, No Iterations 4
smoothSolver:  Solving for Uy, Initial residual = 0.00768653, Final residual = 2.51964e-06, No Iterations 4
GAMG:  Solving for p, Initial residual = 0.00906568, Final residual = 0.000348419, No Iterations 2
time step continuity errors : sum local = 2.3052e-07, global = 1.52367e-19, cumulative = 6.537e-19
GAMG:  Solving for p, Initial residual = 0.000551586, Final residual = 8.84513e-07, No Iterations 6
time step continuity errors : sum local = 6.66928e-10, global = 2.05099e-19, cumulative = 8.58799e-19
smoothSolver:  Solving for epsilon, Initial residual = 0.000393872, Final residual = 1.14939e-06, No Iterations 2
smoothSolver:  Solving for k, Initial residual = 0.00556411, Final residual = 2.32136e-06, No Iterations 4
ExecutionTime = 0.19 s  ClockTime = 0 s

Time = 0.345

Courant Number mean: 0.0245165 max: 0.17949
smoothSolver:  Solving for Ux, Initial residual = 0.00523304, Final residual = 2.52971e-06, No Iterations 4
smoothSolver:  Solving for Uy, Initial residual = 0.00759421, Final residual = 2.464e-06, No Iterations 4
GAMG:  Solving for p, Initial residual = 0.00934452, Final residual = 0.000357288, No Iterations 2
time step continuity errors : sum local = 2.39101e-07, global = 1.02322e-19, cumulative = 9.61122e-19
GAMG:  Solving for p, Initial residual = 0.000548293, Final residual = 5.35762e-07, No Iterations 7
time step continuity errors : sum local = 4.09256e-10, global = -3.25496e-20, cumulative = 9.28572e-19
smoothSolver:  Solving for epsilon, Initial residual = 0.000389046, Final residual = 1.12602e-06, No Iterations 2
smoothSolver:  Solving for k, Initial residual = 0.00552658, Final residual = 2.2731e-06, No Iterations 4
ExecutionTime = 0.19 s  ClockTime = 0 s

Time = 0.35

Courant Number mean: 0.0247752 max: 0.181389
smoothSolver:  Solving for Ux, Initial residual = 0.00512672, Final residual = 2.41653e-06, No Iterations 4
smoothSolver:  Solving for Uy, Initial residual = 0.00751564, Final residual = 2.41507e-06, No Iterations 4
GAMG:  Solving for p, Initial residual = 0.0087705, Final residual = 0.000350206, No Iterations 2
time step continuity errors : sum local = 2.36812e-07, global = -6.12837e-20, cumulative = 8.67288e-19
GAMG:  Solving for p, Initial residual = 0.000534673, Final residual = 4.60006e-07, No Iterations 7
time step continuity errors : sum local = 3.56034e-10, global = 5.68687e-23, cumulative = 8.67345e-19
smoothSolver:  Solving for epsilon, Initial residual = 0.000383922, Final residual = 1.10466e-06, No Iterations 2
smoothSolver:  Solving for k, Initial residual = 0.00548707, Final residual = 2.22642e-06, No Iterations 4
ExecutionTime = 0.2 s  ClockTime = 0 s

Time = 0.355

Courant Number mean: 0.0250315 max: 0.183253
smoothSolver:  Solving for Ux, Initial residual = 0.00501987, Final residual = 2.30572e-06, No Iterations 4
smoothSolver:  Solving for Uy, Initial residual = 0.00742736, Final residual = 2.3643e-06, No Iterations 4
GAMG:  Solving for p, Initial residual = 0.00915425, Final residual = 0.000360225, No Iterations 2
time step continuity errors : sum local = 2.46107e-07, global = 1.03222e-19, cumulative = 9.70567e-19
GAMG:  Solving for p, Initial residual = 0.000534796, Final residual = 9.32264e-07, No Iterations 6
time step continuity errors : sum local = 7.26877e-10, global = -1.19073e-19, cumulative = 8.51494e-19
smoothSolver:  Solving for epsilon, Initial residual = 0.000378655, Final residual = 1.08439e-06, No Iterations 2
smoothSolver:  Solving for k, Initial residual = 0.00544571, Final residual = 2.17998e-06, No Iterations 4
ExecutionTime = 0.2 s  ClockTime = 0 s

Time = 0.36

Courant Number mean: 0.0252836 max: 0.185086
smoothSolver:  Solving for Ux, Initial residual = 0.00491422, Final residual = 2.19925e-06, No Iterations 4
smoothSolver:  Solving for Uy, Initial residual = 0.00733873, Final residual = 2.31563e-06, No Iterations 4
GAMG:  Solving for p, Initial residual = 0.00848805, Final residual = 0.00036241, No Iterations 2
time step continuity errors : sum local = 2.50395e-07, global = -2.00901e-19, cumulative = 6.50593e-19
GAMG:  Solving for p, Initial residual = 0.000529511, Final residual = 5.14516e-07, No Iterations 7
time step continuity errors : sum local = 4.06443e-10, global = -4.46678e-20, cumulative = 6.05925e-19
smoothSolver:  Solving for epsilon, Initial residual = 0.000374025, Final residual = 1.06586e-06, No Iterations 2
smoothSolver:  Solving for k, Initial residual = 0.00540344, Final residual = 2.13547e-06, No Iterations 4
ExecutionTime = 0.2 s  ClockTime = 0 s

Time = 0.365

Courant Number mean: 0.0255314 max: 0.186882
smoothSolver:  Solving for Ux, Initial residual = 0.00481393, Final residual = 2.10106e-06, No Iterations 4
smoothSolver:  Solving for Uy, Initial residual = 0.00725984, Final residual = 2.27009e-06, No Iterations 4
GAMG:  Solving for p, Initial residual = 0.00843691, Final residual = 0.000364218, No Iterations 2
time step continuity errors : sum local = 2.54177e-07, global = -1.74287e-19, cumulative = 4.31638e-19
GAMG:  Solving for p, Initial residual = 0.000525395, Final residual = 5.22005e-07, No Iterations 7
time step continuity errors : sum local = 4.16745e-10, global = -7.54699e-20, cumulative = 3.56168e-19
smoothSolver:  Solving for epsilon, Initial residual = 0.000369714, Final residual = 1.04907e-06, No Iterations 2
smoothSolver:  Solving for k, Initial residual = 0.00536166, Final residual = 2.09089e-06, No Iterations 4
ExecutionTime = 0.2 s  ClockTime = 0 s

Time = 0.37

Courant Number mean: 0.0257756 max: 0.188641
smoothSolver:  Solving for Ux, Initial residual = 0.00471578, Final residual = 2.00828e-06, No Iterations 4
smoothSolver:  Solving for Uy, Initial residual = 0.00718249, Final residual = 2.2249e-06, No Iterations 4
GAMG:  Solving for p, Initial residual = 0.00862727, Final residual = 0.000366326, No Iterations 2
time step continuity errors : sum local = 2.58732e-07, global = 2.88996e-20, cumulative = 3.85068e-19
GAMG:  Solving for p, Initial residual = 0.000522807, Final residual = 5.25978e-07, No Iterations 7
time step continuity errors : sum local = 4.24951e-10, global = -1.10118e-20, cumulative = 3.74056e-19
smoothSolver:  Solving for epsilon, Initial residual = 0.000365562, Final residual = 1.03374e-06, No Iterations 2
smoothSolver:  Solving for k, Initial residual = 0.00532335, Final residual = 2.04876e-06, No Iterations 4
ExecutionTime = 0.21 s  ClockTime = 0 s

Time = 0.375

Courant Number mean: 0.0260173 max: 0.190364
smoothSolver:  Solving for Ux, Initial residual = 0.00462257, Final residual = 1.92141e-06, No Iterations 4
smoothSolver:  Solving for Uy, Initial residual = 0.00711215, Final residual = 2.18321e-06, No Iterations 4
GAMG:  Solving for p, Initial residual = 0.00852298, Final residual = 0.000373283, No Iterations 2
time step continuity errors : sum local = 2.65451e-07, global = -7.1944e-20, cumulative = 3.02112e-19
GAMG:  Solving for p, Initial residual = 0.000530089, Final residual = 5.76945e-07, No Iterations 7
time step continuity errors : sum local = 4.6952e-10, global = 6.36722e-20, cumulative = 3.65784e-19
smoothSolver:  Solving for epsilon, Initial residual = 0.00036187, Final residual = 1.01963e-06, No Iterations 2
smoothSolver:  Solving for k, Initial residual = 0.00528285, Final residual = 2.00697e-06, No Iterations 4
ExecutionTime = 0.21 s  ClockTime = 0 s

Time = 0.38

Courant Number mean: 0.0262556 max: 0.19205
smoothSolver:  Solving for Ux, Initial residual = 0.00453155, Final residual = 9.66808e-06, No Iterations 3
smoothSolver:  Solving for Uy, Initial residual = 0.00703611, Final residual = 2.13991e-06, No Iterations 4
GAMG:  Solving for p, Initial residual = 0.00819947, Final residual = 0.000375008, No Iterations 2
time step continuity errors : sum local = 2.6937e-07, global = -2.89927e-20, cumulative = 3.36792e-19
GAMG:  Solving for p, Initial residual = 0.000512461, Final residual = 5.46983e-07, No Iterations 7
time step continuity errors : sum local = 4.50703e-10, global = 7.68373e-20, cumulative = 4.13629e-19
smoothSolver:  Solving for epsilon, Initial residual = 0.000358972, Final residual = 1.00656e-06, No Iterations 2
smoothSolver:  Solving for k, Initial residual = 0.00524037, Final residual = 1.96685e-06, No Iterations 4
ExecutionTime = 0.21 s  ClockTime = 0 s

Time = 0.385

Courant Number mean: 0.026491 max: 0.193698
smoothSolver:  Solving for Ux, Initial residual = 0.00444238, Final residual = 9.31657e-06, No Iterations 3
smoothSolver:  Solving for Uy, Initial residual = 0.00696862, Final residual = 2.10198e-06, No Iterations 4
GAMG:  Solving for p, Initial residual = 0.0087104, Final residual = 0.000369263, No Iterations 2
time step continuity errors : sum local = 2.6891e-07, global = -1.67949e-19, cumulative = 2.4568e-19
GAMG:  Solving for p, Initial residual = 0.000510912, Final residual = 5.2734e-07, No Iterations 7
time step continuity errors : sum local = 4.40671e-10, global = 3.52022e-19, cumulative = 5.97702e-19
smoothSolver:  Solving for epsilon, Initial residual = 0.000356222, Final residual = 9.94219e-07, No Iterations 2
smoothSolver:  Solving for k, Initial residual = 0.00519828, Final residual = 1.92759e-06, No Iterations 4
ExecutionTime = 0.21 s  ClockTime = 0 s

Time = 0.39

Courant Number mean: 0.0267238 max: 0.195309
smoothSolver:  Solving for Ux, Initial residual = 0.00435746, Final residual = 8.99032e-06, No Iterations 3
smoothSolver:  Solving for Uy, Initial residual = 0.00690773, Final residual = 2.06596e-06, No Iterations 4
GAMG:  Solving for p, Initial residual = 0.00879328, Final residual = 0.00040934, No Iterations 2
time step continuity errors : sum local = 2.99282e-07, global = -8.73606e-20, cumulative = 5.10342e-19
GAMG:  Solving for p, Initial residual = 0.00052209, Final residual = 5.42894e-07, No Iterations 7
time step continuity errors : sum local = 4.56411e-10, global = 9.82535e-20, cumulative = 6.08595e-19
smoothSolver:  Solving for epsilon, Initial residual = 0.000354319, Final residual = 9.8277e-07, No Iterations 2
smoothSolver:  Solving for k, Initial residual = 0.00515541, Final residual = 1.88942e-06, No Iterations 4
ExecutionTime = 0.22 s  ClockTime = 0 s

Time = 0.395

Courant Number mean: 0.0269537 max: 0.196881
smoothSolver:  Solving for Ux, Initial residual = 0.00427152, Final residual = 8.64619e-06, No Iterations 3
smoothSolver:  Solving for Uy, Initial residual = 0.00682717, Final residual = 2.02365e-06, No Iterations 4
GAMG:  Solving for p, Initial residual = 0.00825747, Final residual = 0.000402669, No Iterations 2
time step continuity errors : sum local = 2.98183e-07, global = 5.32498e-21, cumulative = 6.1392e-19
GAMG:  Solving for p, Initial residual = 0.000508832, Final residual = 5.70662e-07, No Iterations 7
time step continuity errors : sum local = 4.85489e-10, global = -1.09326e-19, cumulative = 5.04594e-19
smoothSolver:  Solving for epsilon, Initial residual = 0.000352763, Final residual = 9.72156e-07, No Iterations 2
smoothSolver:  Solving for k, Initial residual = 0.00511148, Final residual = 1.85232e-06, No Iterations 4
ExecutionTime = 0.22 s  ClockTime = 0 s

Time = 0.4

Courant Number mean: 0.0271808 max: 0.198416
smoothSolver:  Solving for Ux, Initial residual = 0.0041934, Final residual = 8.33491e-06, No Iterations 3
smoothSolver:  Solving for Uy, Initial residual = 0.00675867, Final residual = 1.98639e-06, No Iterations 4
GAMG:  Solving for p, Initial residual = 0.00812817, Final residual = 0.000411188, No Iterations 2
time step continuity errors : sum local = 3.07623e-07, global = -4.39646e-20, cumulative = 4.6063e-19
GAMG:  Solving for p, Initial residual = 0.000502385, Final residual = 5.17064e-07, No Iterations 7
time step continuity errors : sum local = 4.45375e-10, global = -1.396e-19, cumulative = 3.21029e-19
smoothSolver:  Solving for epsilon, Initial residual = 0.000351472, Final residual = 9.61903e-07, No Iterations 2
smoothSolver:  Solving for k, Initial residual = 0.00506631, Final residual = 1.81594e-06, No Iterations 4
ExecutionTime = 0.22 s  ClockTime = 0 s

Time = 0.405

Courant Number mean: 0.0274046 max: 0.19991
smoothSolver:  Solving for Ux, Initial residual = 0.00411924, Final residual = 8.03437e-06, No Iterations 3
smoothSolver:  Solving for Uy, Initial residual = 0.00669051, Final residual = 1.94858e-06, No Iterations 4
GAMG:  Solving for p, Initial residual = 0.00817304, Final residual = 0.000397734, No Iterations 2
time step continuity errors : sum local = 3.01141e-07, global = 2.37463e-19, cumulative = 5.58492e-19
GAMG:  Solving for p, Initial residual = 0.000493359, Final residual = 6.23168e-07, No Iterations 7
time step continuity errors : sum local = 5.41648e-10, global = 2.4818e-20, cumulative = 5.8331e-19
smoothSolver:  Solving for epsilon, Initial residual = 0.000350029, Final residual = 9.52326e-07, No Iterations 2
smoothSolver:  Solving for k, Initial residual = 0.00502022, Final residual = 1.78075e-06, No Iterations 4
ExecutionTime = 0.22 s  ClockTime = 0 s

Time = 0.41

Courant Number mean: 0.0276264 max: 0.201368
smoothSolver:  Solving for Ux, Initial residual = 0.00405322, Final residual = 7.76551e-06, No Iterations 3
smoothSolver:  Solving for Uy, Initial residual = 0.00663126, Final residual = 1.91504e-06, No Iterations 4
GAMG:  Solving for p, Initial residual = 0.0081539, Final residual = 0.000379639, No Iterations 2
time step continuity errors : sum local = 2.90661e-07, global = -1.1229e-20, cumulative = 5.72081e-19
GAMG:  Solving for p, Initial residual = 0.000481391, Final residual = 5.73466e-07, No Iterations 7
time step continuity errors : sum local = 5.04359e-10, global = 1.33406e-19, cumulative = 7.05487e-19
smoothSolver:  Solving for epsilon, Initial residual = 0.000348329, Final residual = 9.43016e-07, No Iterations 2
smoothSolver:  Solving for k, Initial residual = 0.00497328, Final residual = 9.98886e-06, No Iterations 3
ExecutionTime = 0.23 s  ClockTime = 0 s

Time = 0.415

Courant Number mean: 0.0278456 max: 0.20279
smoothSolver:  Solving for Ux, Initial residual = 0.00399113, Final residual = 7.50866e-06, No Iterations 3
smoothSolver:  Solving for Uy, Initial residual = 0.00656972, Final residual = 1.88028e-06, No Iterations 4
GAMG:  Solving for p, Initial residual = 0.00812684, Final residual = 0.000382469, No Iterations 2
time step continuity errors : sum local = 2.96064e-07, global = 7.55836e-20, cumulative = 7.81071e-19
GAMG:  Solving for p, Initial residual = 0.000479301, Final residual = 6.16014e-07, No Iterations 7
time step continuity errors : sum local = 5.47497e-10, global = -4.20001e-20, cumulative = 7.39071e-19
smoothSolver:  Solving for epsilon, Initial residual = 0.000346466, Final residual = 9.34452e-07, No Iterations 2
smoothSolver:  Solving for k, Initial residual = 0.00492546, Final residual = 9.84244e-06, No Iterations 3
ExecutionTime = 0.23 s  ClockTime = 0 s

Time = 0.42

Courant Number mean: 0.028062 max: 0.204176
smoothSolver:  Solving for Ux, Initial residual = 0.00393068, Final residual = 7.2698e-06, No Iterations 3
smoothSolver:  Solving for Uy, Initial residual = 0.00651151, Final residual = 1.84793e-06, No Iterations 4
GAMG:  Solving for p, Initial residual = 0.0085099, Final residual = 0.000378678, No Iterations 2
time step continuity errors : sum local = 2.96478e-07, global = -7.25851e-20, cumulative = 6.66486e-19
GAMG:  Solving for p, Initial residual = 0.000474929, Final residual = 6.20104e-07, No Iterations 7
time step continuity errors : sum local = 5.57688e-10, global = -4.06094e-20, cumulative = 6.25876e-19
smoothSolver:  Solving for epsilon, Initial residual = 0.000344434, Final residual = 9.26079e-07, No Iterations 2
[...]
smoothSolver:  Solving for k, Initial residual = 6.40147e-05, Final residual = 3.28851e-06, No Iterations 1
ExecutionTime = 4.55 s  ClockTime = 5 s

Time = 9.9

Courant Number mean: 0.135652 max: 0.268724
smoothSolver:  Solving for Ux, Initial residual = 4.39606e-05, Final residual = 2.50418e-06, No Iterations 1
smoothSolver:  Solving for Uy, Initial residual = 4.68669e-05, Final residual = 2.48916e-06, No Iterations 1
GAMG:  Solving for p, Initial residual = 8.32107e-05, Final residual = 5.54891e-06, No Iterations 2
time step continuity errors : sum local = 1.15752e-08, global = -1.61466e-19, cumulative = -6.50936e-18
GAMG:  Solving for p, Initial residual = 6.79995e-06, Final residual = 6.30944e-07, No Iterations 2
time step continuity errors : sum local = 1.42492e-09, global = 3.58666e-19, cumulative = -6.15069e-18
smoothSolver:  Solving for epsilon, Initial residual = 9.87937e-06, Final residual = 9.87937e-06, No Iterations 0
smoothSolver:  Solving for k, Initial residual = 6.43071e-05, Final residual = 3.31659e-06, No Iterations 1
ExecutionTime = 4.55 s  ClockTime = 5 s

Time = 9.905

Courant Number mean: 0.135663 max: 0.268729
smoothSolver:  Solving for Ux, Initial residual = 4.40279e-05, Final residual = 2.50064e-06, No Iterations 1
smoothSolver:  Solving for Uy, Initial residual = 4.6732e-05, Final residual = 2.48108e-06, No Iterations 1
GAMG:  Solving for p, Initial residual = 8.45852e-05, Final residual = 5.61055e-06, No Iterations 2
time step continuity errors : sum local = 1.16998e-08, global = -9.5953e-20, cumulative = -6.24665e-18
GAMG:  Solving for p, Initial residual = 6.8091e-06, Final residual = 6.30047e-07, No Iterations 2
time step continuity errors : sum local = 1.42478e-09, global = -4.26825e-20, cumulative = -6.28933e-18
smoothSolver:  Solving for epsilon, Initial residual = 1.03382e-05, Final residual = 6.20754e-07, No Iterations 1
smoothSolver:  Solving for k, Initial residual = 6.4264e-05, Final residual = 3.32109e-06, No Iterations 1
ExecutionTime = 4.56 s  ClockTime = 5 s

Time = 9.91

Courant Number mean: 0.135675 max: 0.268734
smoothSolver:  Solving for Ux, Initial residual = 4.41086e-05, Final residual = 2.49852e-06, No Iterations 1
smoothSolver:  Solving for Uy, Initial residual = 4.65951e-05, Final residual = 2.47208e-06, No Iterations 1
GAMG:  Solving for p, Initial residual = 8.31e-05, Final residual = 5.55236e-06, No Iterations 2
time step continuity errors : sum local = 1.15891e-08, global = 2.85874e-19, cumulative = -6.00346e-18
GAMG:  Solving for p, Initial residual = 6.78874e-06, Final residual = 6.30015e-07, No Iterations 2
time step continuity errors : sum local = 1.42314e-09, global = 1.16136e-19, cumulative = -5.88732e-18
smoothSolver:  Solving for epsilon, Initial residual = 9.97681e-06, Final residual = 9.97681e-06, No Iterations 0
smoothSolver:  Solving for k, Initial residual = 6.45706e-05, Final residual = 3.34976e-06, No Iterations 1
ExecutionTime = 4.56 s  ClockTime = 5 s

Time = 9.915

Courant Number mean: 0.135686 max: 0.268739
smoothSolver:  Solving for Ux, Initial residual = 4.4173e-05, Final residual = 2.49496e-06, No Iterations 1
smoothSolver:  Solving for Uy, Initial residual = 4.64597e-05, Final residual = 2.46404e-06, No Iterations 1
GAMG:  Solving for p, Initial residual = 8.45634e-05, Final residual = 5.61692e-06, No Iterations 2
time step continuity errors : sum local = 1.17198e-08, global = -2.00178e-19, cumulative = -6.0875e-18
GAMG:  Solving for p, Initial residual = 6.79766e-06, Final residual = 6.28784e-07, No Iterations 2
time step continuity errors : sum local = 1.42236e-09, global = -4.21531e-19, cumulative = -6.50903e-18
smoothSolver:  Solving for epsilon, Initial residual = 1.04372e-05, Final residual = 6.25883e-07, No Iterations 1
smoothSolver:  Solving for k, Initial residual = 6.45097e-05, Final residual = 3.35669e-06, No Iterations 1
ExecutionTime = 4.56 s  ClockTime = 5 s

Time = 9.92

Courant Number mean: 0.135698 max: 0.268743
smoothSolver:  Solving for Ux, Initial residual = 4.42554e-05, Final residual = 2.49274e-06, No Iterations 1
smoothSolver:  Solving for Uy, Initial residual = 4.63201e-05, Final residual = 2.45493e-06, No Iterations 1
GAMG:  Solving for p, Initial residual = 8.30167e-05, Final residual = 5.55864e-06, No Iterations 2
time step continuity errors : sum local = 1.16086e-08, global = 4.67853e-19, cumulative = -6.04118e-18
GAMG:  Solving for p, Initial residual = 6.77838e-06, Final residual = 6.29109e-07, No Iterations 2
time step continuity errors : sum local = 1.42145e-09, global = 1.61466e-19, cumulative = -5.87971e-18
smoothSolver:  Solving for epsilon, Initial residual = 1.00678e-05, Final residual = 6.00326e-07, No Iterations 1
smoothSolver:  Solving for k, Initial residual = 6.42256e-05, Final residual = 3.35034e-06, No Iterations 1
ExecutionTime = 4.56 s  ClockTime = 5 s

Time = 9.925

Courant Number mean: 0.135709 max: 0.268748
smoothSolver:  Solving for Ux, Initial residual = 4.43188e-05, Final residual = 2.48913e-06, No Iterations 1
smoothSolver:  Solving for Uy, Initial residual = 4.61781e-05, Final residual = 2.44612e-06, No Iterations 1
GAMG:  Solving for p, Initial residual = 8.26931e-05, Final residual = 5.56125e-06, No Iterations 2
time step continuity errors : sum local = 1.16154e-08, global = -4.41384e-19, cumulative = -6.32109e-18
GAMG:  Solving for p, Initial residual = 6.77119e-06, Final residual = 6.29372e-07, No Iterations 2
time step continuity errors : sum local = 1.42172e-09, global = 1.43599e-19, cumulative = -6.1775e-18
smoothSolver:  Solving for epsilon, Initial residual = 9.72886e-06, Final residual = 9.72886e-06, No Iterations 0
smoothSolver:  Solving for k, Initial residual = 6.45205e-05, Final residual = 3.38081e-06, No Iterations 1
ExecutionTime = 4.56 s  ClockTime = 5 s

Time = 9.93

Courant Number mean: 0.13572 max: 0.268753
smoothSolver:  Solving for Ux, Initial residual = 4.43819e-05, Final residual = 2.48577e-06, No Iterations 1
smoothSolver:  Solving for Uy, Initial residual = 4.60357e-05, Final residual = 2.43821e-06, No Iterations 1
GAMG:  Solving for p, Initial residual = 8.42565e-05, Final residual = 5.62507e-06, No Iterations 2
time step continuity errors : sum local = 1.17485e-08, global = 1.36981e-19, cumulative = -6.04051e-18
GAMG:  Solving for p, Initial residual = 6.78024e-06, Final residual = 6.26322e-07, No Iterations 2
time step continuity errors : sum local = 1.41771e-09, global = 2.87859e-20, cumulative = -6.01173e-18
smoothSolver:  Solving for epsilon, Initial residual = 1.01811e-05, Final residual = 6.06683e-07, No Iterations 1
smoothSolver:  Solving for k, Initial residual = 6.44695e-05, Final residual = 3.38873e-06, No Iterations 1
ExecutionTime = 4.57 s  ClockTime = 5 s

Time = 9.935

Courant Number mean: 0.135732 max: 0.268758
smoothSolver:  Solving for Ux, Initial residual = 4.44592e-05, Final residual = 2.48358e-06, No Iterations 1
smoothSolver:  Solving for Uy, Initial residual = 4.58946e-05, Final residual = 2.4293e-06, No Iterations 1
GAMG:  Solving for p, Initial residual = 8.26534e-05, Final residual = 5.56872e-06, No Iterations 2
time step continuity errors : sum local = 1.16402e-08, global = -3.89106e-19, cumulative = -6.40083e-18
GAMG:  Solving for p, Initial residual = 6.76115e-06, Final residual = 6.27421e-07, No Iterations 2
time step continuity errors : sum local = 1.41839e-09, global = 2.50801e-19, cumulative = -6.15003e-18
smoothSolver:  Solving for epsilon, Initial residual = 9.82958e-06, Final residual = 9.82958e-06, No Iterations 0
smoothSolver:  Solving for k, Initial residual = 6.47548e-05, Final residual = 3.41832e-06, No Iterations 1
ExecutionTime = 4.57 s  ClockTime = 5 s

Time = 9.94

Courant Number mean: 0.135743 max: 0.268763
smoothSolver:  Solving for Ux, Initial residual = 4.45185e-05, Final residual = 2.48004e-06, No Iterations 1
smoothSolver:  Solving for Uy, Initial residual = 4.57555e-05, Final residual = 2.42122e-06, No Iterations 1
GAMG:  Solving for p, Initial residual = 8.42141e-05, Final residual = 5.63825e-06, No Iterations 2
time step continuity errors : sum local = 1.17813e-08, global = 4.54949e-19, cumulative = -5.69508e-18
GAMG:  Solving for p, Initial residual = 6.77117e-06, Final residual = 6.25688e-07, No Iterations 2
time step continuity errors : sum local = 1.41659e-09, global = 9.43979e-19, cumulative = -4.75111e-18
smoothSolver:  Solving for epsilon, Initial residual = 1.02807e-05, Final residual = 6.12727e-07, No Iterations 1
smoothSolver:  Solving for k, Initial residual = 6.4683e-05, Final residual = 3.42449e-06, No Iterations 1
ExecutionTime = 4.57 s  ClockTime = 5 s

Time = 9.945

Courant Number mean: 0.135754 max: 0.268767
smoothSolver:  Solving for Ux, Initial residual = 4.4592e-05, Final residual = 2.47771e-06, No Iterations 1
smoothSolver:  Solving for Uy, Initial residual = 4.56153e-05, Final residual = 2.41218e-06, No Iterations 1
GAMG:  Solving for p, Initial residual = 8.253e-05, Final residual = 5.58307e-06, No Iterations 2
time step continuity errors : sum local = 1.16751e-08, global = -1.58819e-19, cumulative = -4.90992e-18
GAMG:  Solving for p, Initial residual = 6.75305e-06, Final residual = 6.27015e-07, No Iterations 2
time step continuity errors : sum local = 1.41776e-09, global = -3.30872e-22, cumulative = -4.91025e-18
smoothSolver:  Solving for epsilon, Initial residual = 9.92003e-06, Final residual = 9.92003e-06, No Iterations 0
smoothSolver:  Solving for k, Initial residual = 6.4966e-05, Final residual = 3.45365e-06, No Iterations 1
ExecutionTime = 4.57 s  ClockTime = 5 s

Time = 9.95

Courant Number mean: 0.135766 max: 0.268772
smoothSolver:  Solving for Ux, Initial residual = 4.46489e-05, Final residual = 2.47397e-06, No Iterations 1
smoothSolver:  Solving for Uy, Initial residual = 4.54762e-05, Final residual = 2.40395e-06, No Iterations 1
GAMG:  Solving for p, Initial residual = 8.4135e-05, Final residual = 5.65188e-06, No Iterations 2
time step continuity errors : sum local = 1.18157e-08, global = 4.51641e-19, cumulative = -4.45861e-18
GAMG:  Solving for p, Initial residual = 6.76387e-06, Final residual = 6.24854e-07, No Iterations 2
time step continuity errors : sum local = 1.41517e-09, global = 2.85874e-19, cumulative = -4.17274e-18
smoothSolver:  Solving for epsilon, Initial residual = 1.03713e-05, Final residual = 6.18374e-07, No Iterations 1
smoothSolver:  Solving for k, Initial residual = 6.48752e-05, Final residual = 3.45876e-06, No Iterations 1
ExecutionTime = 4.58 s  ClockTime = 5 s

Time = 9.955

Courant Number mean: 0.135777 max: 0.268777
smoothSolver:  Solving for Ux, Initial residual = 4.47193e-05, Final residual = 2.47149e-06, No Iterations 1
smoothSolver:  Solving for Uy, Initial residual = 4.53291e-05, Final residual = 2.39481e-06, No Iterations 1
GAMG:  Solving for p, Initial residual = 8.23572e-05, Final residual = 5.59815e-06, No Iterations 2
time step continuity errors : sum local = 1.17119e-08, global = -1.99185e-19, cumulative = -4.37193e-18
GAMG:  Solving for p, Initial residual = 6.74325e-06, Final residual = 6.26593e-07, No Iterations 2
time step continuity errors : sum local = 1.41718e-09, global = 5.20793e-19, cumulative = -3.85113e-18
smoothSolver:  Solving for epsilon, Initial residual = 1.00078e-05, Final residual = 5.93888e-07, No Iterations 1
smoothSolver:  Solving for k, Initial residual = 6.45627e-05, Final residual = 3.45126e-06, No Iterations 1
ExecutionTime = 4.58 s  ClockTime = 5 s

Time = 9.96

Courant Number mean: 0.135788 max: 0.268781
smoothSolver:  Solving for Ux, Initial residual = 4.47708e-05, Final residual = 2.46764e-06, No Iterations 1
smoothSolver:  Solving for Uy, Initial residual = 4.51805e-05, Final residual = 2.38588e-06, No Iterations 1
GAMG:  Solving for p, Initial residual = 8.1968e-05, Final residual = 5.60601e-06, No Iterations 2
time step continuity errors : sum local = 1.17293e-08, global = -3.69915e-19, cumulative = -4.22105e-18
GAMG:  Solving for p, Initial residual = 6.73829e-06, Final residual = 6.27235e-07, No Iterations 2
time step continuity errors : sum local = 1.41828e-09, global = 7.27919e-21, cumulative = -4.21377e-18
smoothSolver:  Solving for epsilon, Initial residual = 9.67438e-06, Final residual = 9.67438e-06, No Iterations 0
smoothSolver:  Solving for k, Initial residual = 6.48249e-05, Final residual = 3.482e-06, No Iterations 1
ExecutionTime = 4.58 s  ClockTime = 5 s

Time = 9.965

Courant Number mean: 0.1358 max: 0.268786
smoothSolver:  Solving for Ux, Initial residual = 4.48319e-05, Final residual = 2.46407e-06, No Iterations 1
smoothSolver:  Solving for Uy, Initial residual = 4.50319e-05, Final residual = 2.37767e-06, No Iterations 1
GAMG:  Solving for p, Initial residual = 8.37798e-05, Final residual = 5.67e-06, No Iterations 2
time step continuity errors : sum local = 1.18642e-08, global = -1.82641e-19, cumulative = -4.39641e-18
GAMG:  Solving for p, Initial residual = 6.75645e-06, Final residual = 6.2319e-07, No Iterations 2
time step continuity errors : sum local = 1.41228e-09, global = 7.07405e-19, cumulative = -3.68901e-18
smoothSolver:  Solving for epsilon, Initial residual = 1.01176e-05, Final residual = 6.01081e-07, No Iterations 1
smoothSolver:  Solving for k, Initial residual = 6.4756e-05, Final residual = 3.49065e-06, No Iterations 1
ExecutionTime = 4.58 s  ClockTime = 5 s

Time = 9.97

Courant Number mean: 0.135811 max: 0.268791
smoothSolver:  Solving for Ux, Initial residual = 4.49045e-05, Final residual = 2.46221e-06, No Iterations 1
smoothSolver:  Solving for Uy, Initial residual = 4.48756e-05, Final residual = 2.3687e-06, No Iterations 1
GAMG:  Solving for p, Initial residual = 8.18739e-05, Final residual = 5.62036e-06, No Iterations 2
time step continuity errors : sum local = 1.17676e-08, global = 1.48893e-19, cumulative = -3.54011e-18
GAMG:  Solving for p, Initial residual = 6.73144e-06, Final residual = 6.25621e-07, No Iterations 2
time step continuity errors : sum local = 1.41575e-09, global = -8.76811e-20, cumulative = -3.62779e-18
smoothSolver:  Solving for epsilon, Initial residual = 9.77393e-06, Final residual = 9.77393e-06, No Iterations 0
smoothSolver:  Solving for k, Initial residual = 6.50111e-05, Final residual = 3.52196e-06, No Iterations 1
ExecutionTime = 4.58 s  ClockTime = 5 s

Time = 9.975

Courant Number mean: 0.135822 max: 0.268795
smoothSolver:  Solving for Ux, Initial residual = 4.49638e-05, Final residual = 2.45914e-06, No Iterations 1
smoothSolver:  Solving for Uy, Initial residual = 4.47234e-05, Final residual = 2.36048e-06, No Iterations 1
GAMG:  Solving for p, Initial residual = 8.37386e-05, Final residual = 5.68657e-06, No Iterations 2
time step continuity errors : sum local = 1.1904e-08, global = -3.13336e-19, cumulative = -3.94113e-18
GAMG:  Solving for p, Initial residual = 6.75422e-06, Final residual = 6.23001e-07, No Iterations 2
time step continuity errors : sum local = 1.41218e-09, global = 1.2143e-19, cumulative = -3.8197e-18
smoothSolver:  Solving for epsilon, Initial residual = 1.02179e-05, Final residual = 6.08389e-07, No Iterations 1
smoothSolver:  Solving for k, Initial residual = 6.49338e-05, Final residual = 3.52984e-06, No Iterations 1
ExecutionTime = 4.59 s  ClockTime = 5 s

Time = 9.98

Courant Number mean: 0.135834 max: 0.2688
smoothSolver:  Solving for Ux, Initial residual = 4.50335e-05, Final residual = 2.45758e-06, No Iterations 1
smoothSolver:  Solving for Uy, Initial residual = 4.4566e-05, Final residual = 2.35145e-06, No Iterations 1
GAMG:  Solving for p, Initial residual = 8.16742e-05, Final residual = 5.63812e-06, No Iterations 2
time step continuity errors : sum local = 1.18096e-08, global = -1.27717e-19, cumulative = -3.94742e-18
GAMG:  Solving for p, Initial residual = 6.72708e-06, Final residual = 6.25602e-07, No Iterations 2
time step continuity errors : sum local = 1.41604e-09, global = -1.87274e-19, cumulative = -4.13469e-18
smoothSolver:  Solving for epsilon, Initial residual = 9.86611e-06, Final residual = 9.86611e-06, No Iterations 0
smoothSolver:  Solving for k, Initial residual = 6.51847e-05, Final residual = 3.55999e-06, No Iterations 1
ExecutionTime = 4.59 s  ClockTime = 5 s

Time = 9.985

Courant Number mean: 0.135845 max: 0.268804
smoothSolver:  Solving for Ux, Initial residual = 4.50888e-05, Final residual = 2.45453e-06, No Iterations 1
smoothSolver:  Solving for Uy, Initial residual = 4.44126e-05, Final residual = 2.34345e-06, No Iterations 1
GAMG:  Solving for p, Initial residual = 8.3617e-05, Final residual = 5.70243e-06, No Iterations 2
time step continuity errors : sum local = 1.19432e-08, global = -1.48562e-19, cumulative = -4.28325e-18
GAMG:  Solving for p, Initial residual = 6.75104e-06, Final residual = 6.22507e-07, No Iterations 2
time step continuity errors : sum local = 1.41157e-09, global = -1.19114e-20, cumulative = -4.29516e-18
smoothSolver:  Solving for epsilon, Initial residual = 1.03059e-05, Final residual = 6.15681e-07, No Iterations 1
smoothSolver:  Solving for k, Initial residual = 6.51082e-05, Final residual = 3.56727e-06, No Iterations 1
ExecutionTime = 4.59 s  ClockTime = 5 s

Time = 9.99

Courant Number mean: 0.135856 max: 0.268808
smoothSolver:  Solving for Ux, Initial residual = 4.51546e-05, Final residual = 2.45322e-06, No Iterations 1
smoothSolver:  Solving for Uy, Initial residual = 4.42508e-05, Final residual = 2.33461e-06, No Iterations 1
GAMG:  Solving for p, Initial residual = 8.14572e-05, Final residual = 5.65572e-06, No Iterations 2
time step continuity errors : sum local = 1.18516e-08, global = 9.5953e-21, cumulative = -4.28557e-18
GAMG:  Solving for p, Initial residual = 6.7227e-06, Final residual = 6.25378e-07, No Iterations 2
time step continuity errors : sum local = 1.41599e-09, global = -4.17892e-19, cumulative = -4.70346e-18
smoothSolver:  Solving for epsilon, Initial residual = 9.94334e-06, Final residual = 9.94334e-06, No Iterations 0
smoothSolver:  Solving for k, Initial residual = 6.53968e-05, Final residual = 3.59755e-06, No Iterations 1
ExecutionTime = 4.59 s  ClockTime = 5 s

Time = 9.995

Courant Number mean: 0.135867 max: 0.268813
smoothSolver:  Solving for Ux, Initial residual = 4.52114e-05, Final residual = 2.45045e-06, No Iterations 1
smoothSolver:  Solving for Uy, Initial residual = 4.40916e-05, Final residual = 2.32684e-06, No Iterations 1
GAMG:  Solving for p, Initial residual = 8.34428e-05, Final residual = 5.71778e-06, No Iterations 2
time step continuity errors : sum local = 1.19814e-08, global = 1.27717e-19, cumulative = -4.57574e-18
GAMG:  Solving for p, Initial residual = 6.74602e-06, Final residual = 6.21948e-07, No Iterations 2
time step continuity errors : sum local = 1.41086e-09, global = 4.02341e-19, cumulative = -4.1734e-18
smoothSolver:  Solving for epsilon, Initial residual = 1.03796e-05, Final residual = 6.22259e-07, No Iterations 1
smoothSolver:  Solving for k, Initial residual = 6.53327e-05, Final residual = 3.6049e-06, No Iterations 1
ExecutionTime = 4.59 s  ClockTime = 5 s

Time = 10

Courant Number mean: 0.135878 max: 0.268817
smoothSolver:  Solving for Ux, Initial residual = 4.52825e-05, Final residual = 2.4495e-06, No Iterations 1
smoothSolver:  Solving for Uy, Initial residual = 4.39273e-05, Final residual = 2.31822e-06, No Iterations 1
GAMG:  Solving for p, Initial residual = 8.12019e-05, Final residual = 5.67339e-06, No Iterations 2
time step continuity errors : sum local = 1.18939e-08, global = -1.20437e-19, cumulative = -4.29384e-18
GAMG:  Solving for p, Initial residual = 6.71779e-06, Final residual = 6.25184e-07, No Iterations 2
time step continuity errors : sum local = 1.41604e-09, global = 2.39882e-19, cumulative = -4.05396e-18
smoothSolver:  Solving for epsilon, Initial residual = 1.00113e-05, Final residual = 5.98978e-07, No Iterations 1
smoothSolver:  Solving for k, Initial residual = 6.50427e-05, Final residual = 3.60006e-06, No Iterations 1
ExecutionTime = 4.6 s  ClockTime = 5 s

End

