/*---------------------------------------------------------------------------*\
| =========                 |                                                 |
| \\      /  F ield         | OpenFOAM: The Open Source CFD Toolbox           |
|  \\    /   O peration     | Version:  2.4.0                                 |
|   \\  /    A nd           | Web:      www.OpenFOAM.org                      |
|    \\/     M anipulation  |                                                 |
\*---------------------------------------------------------------------------*/
Build  : 2.4.0-f0842aea0e77
Exec   : pisoFoam
Date   : Sep 28 2015
Time   : 11:29:17
Host   : "ubuntu"
PID    : 18721
Case   : /home/brennanharris/OpenFOAM/brennanharris-2.4.0/run/tutorials/incompressible/pisoFoam/ras/cavity
nProcs : 1
sigFpe : Enabling floating point exception trapping (FOAM_SIGFPE).
fileModificationChecking : Monitoring run-time modified files using timeStampMaster
allowSystemOperations : Allowing user-supplied system call operations

// * * * * * * * * * * * * * * * * * * * * * * * * * * * * * * * * * * * * * //
Create time

Create mesh for time = 10

Reading field p

Reading field U

Reading/calculating face flux field phi

Selecting incompressible transport model Newtonian
Selecting turbulence model type RASModel
Selecting RAS turbulence model kEpsilon
kEpsilonCoeffs
{
    Cmu             0.09;
    C1              1.44;
    C2              1.92;
    sigmaEps        1.3;
}


Starting time loop

Time = 10.02

Courant Number mean: 0.543558 max: 1.07529
smoothSolver:  Solving for Ux, Initial residual = 0.000180104, Final residual = 9.66908e-06, No Iterations 2
smoothSolver:  Solving for Uy, Initial residual = 0.000174352, Final residual = 8.79769e-06, No Iterations 2
GAMG:  Solving for p, Initial residual = 0.0917778, Final residual = 0.00801204, No Iterations 1
time step continuity errors : sum local = 0.000208448, global = -4.76456e-19, cumulative = -4.76456e-19
GAMG:  Solving for p, Initial residual = 0.0117136, Final residual = 9.69116e-07, No Iterations 7
time step continuity errors : sum local = 3.0991e-08, global = -1.96406e-18, cumulative = -2.44051e-18
smoothSolver:  Solving for epsilon, Initial residual = 9.65259e-05, Final residual = 4.61872e-06, No Iterations 2
smoothSolver:  Solving for k, Initial residual = 0.000382106, Final residual = 7.10472e-06, No Iterations 3
ExecutionTime = 0.01 s  ClockTime = 0 s

Time = 10.04

Courant Number mean: 0.54368 max: 1.07539
smoothSolver:  Solving for Ux, Initial residual = 0.00146055, Final residual = 6.42986e-06, No Iterations 5
smoothSolver:  Solving for Uy, Initial residual = 0.00112871, Final residual = 4.4734e-06, No Iterations 5
GAMG:  Solving for p, Initial residual = 0.0188725, Final residual = 0.000408067, No Iterations 2
time step continuity errors : sum local = 1.03889e-05, global = 1.03398e-23, cumulative = -2.4405e-18
GAMG:  Solving for p, Initial residual = 0.00265937, Final residual = 4.51461e-07, No Iterations 6
time step continuity errors : sum local = 1.32753e-08, global = -8.77473e-19, cumulative = -3.31798e-18
smoothSolver:  Solving for epsilon, Initial residual = 0.00012438, Final residual = 6.39014e-06, No Iterations 2
smoothSolver:  Solving for k, Initial residual = 0.000458263, Final residual = 9.09979e-06, No Iterations 3
ExecutionTime = 0.02 s  ClockTime = 0 s

Time = 10.06

Courant Number mean: 0.543778 max: 1.07537
smoothSolver:  Solving for Ux, Initial residual = 0.00102382, Final residual = 9.17532e-06, No Iterations 4
smoothSolver:  Solving for Uy, Initial residual = 0.000853559, Final residual = 7.23598e-06, No Iterations 4
GAMG:  Solving for p, Initial residual = 0.0124008, Final residual = 0.000247577, No Iterations 2
time step continuity errors : sum local = 6.33584e-06, global = 1.4876e-18, cumulative = -1.83037e-18
GAMG:  Solving for p, Initial residual = 0.00159477, Final residual = 4.9554e-07, No Iterations 6
time step continuity errors : sum local = 1.41103e-08, global = -1.20835e-18, cumulative = -3.03872e-18
smoothSolver:  Solving for epsilon, Initial residual = 0.000119836, Final residual = 6.34713e-06, No Iterations 2
smoothSolver:  Solving for k, Initial residual = 0.00048662, Final residual = 8.89463e-06, No Iterations 3
ExecutionTime = 0.02 s  ClockTime = 0 s

Time = 10.08

Courant Number mean: 0.543863 max: 1.07522
smoothSolver:  Solving for Ux, Initial residual = 0.000792692, Final residual = 6.53692e-06, No Iterations 4
smoothSolver:  Solving for Uy, Initial residual = 0.000701747, Final residual = 5.64055e-06, No Iterations 4
GAMG:  Solving for p, Initial residual = 0.00736843, Final residual = 0.000154452, No Iterations 2
time step continuity errors : sum local = 3.95773e-06, global = -2.70256e-18, cumulative = -5.74128e-18
GAMG:  Solving for p, Initial residual = 0.00094803, Final residual = 8.90157e-07, No Iterations 5
time step continuity errors : sum local = 2.36376e-08, global = -3.12343e-19, cumulative = -6.05363e-18
smoothSolver:  Solving for epsilon, Initial residual = 0.000118219, Final residual = 6.66496e-06, No Iterations 2
smoothSolver:  Solving for k, Initial residual = 0.000498265, Final residual = 9.22687e-06, No Iterations 3
ExecutionTime = 0.02 s  ClockTime = 0 s

Time = 10.1

Courant Number mean: 0.543935 max: 1.07515
smoothSolver:  Solving for Ux, Initial residual = 0.000650535, Final residual = 5.13806e-06, No Iterations 4
smoothSolver:  Solving for Uy, Initial residual = 0.000592457, Final residual = 4.85851e-06, No Iterations 4
GAMG:  Solving for p, Initial residual = 0.00528908, Final residual = 0.000112186, No Iterations 2
time step continuity errors : sum local = 2.91964e-06, global = 8.7615e-19, cumulative = -5.17748e-18
GAMG:  Solving for p, Initial residual = 0.000695132, Final residual = 8.21771e-07, No Iterations 5
time step continuity errors : sum local = 2.31481e-08, global = 1.4479e-18, cumulative = -3.72958e-18
smoothSolver:  Solving for epsilon, Initial residual = 0.000102379, Final residual = 5.78825e-06, No Iterations 2
smoothSolver:  Solving for k, Initial residual = 0.000484997, Final residual = 8.96271e-06, No Iterations 3
ExecutionTime = 0.02 s  ClockTime = 0 s

Time = 10.12

Courant Number mean: 0.543984 max: 1.07509
smoothSolver:  Solving for Ux, Initial residual = 0.000550561, Final residual = 4.39983e-06, No Iterations 4
smoothSolver:  Solving for Uy, Initial residual = 0.000519677, Final residual = 4.10412e-06, No Iterations 4
GAMG:  Solving for p, Initial residual = 0.00407701, Final residual = 0.000398643, No Iterations 1
time step continuity errors : sum local = 1.0303e-05, global = 1.3579e-18, cumulative = -2.37168e-18
GAMG:  Solving for p, Initial residual = 0.000824178, Final residual = 4.31105e-07, No Iterations 6
time step continuity errors : sum local = 1.24678e-08, global = 4.58192e-18, cumulative = 2.21024e-18
smoothSolver:  Solving for epsilon, Initial residual = 9.4602e-05, Final residual = 5.65168e-06, No Iterations 2
smoothSolver:  Solving for k, Initial residual = 0.000470916, Final residual = 8.64695e-06, No Iterations 3
ExecutionTime = 0.02 s  ClockTime = 0 s

Time = 10.14

Courant Number mean: 0.544017 max: 1.07505
smoothSolver:  Solving for Ux, Initial residual = 0.000481287, Final residual = 3.5731e-06, No Iterations 4
smoothSolver:  Solving for Uy, Initial residual = 0.000461146, Final residual = 9.74721e-06, No Iterations 3
GAMG:  Solving for p, Initial residual = 0.00319434, Final residual = 0.000314976, No Iterations 1
time step continuity errors : sum local = 8.16355e-06, global = -1.03232e-19, cumulative = 2.107e-18
GAMG:  Solving for p, Initial residual = 0.000645046, Final residual = 6.93703e-07, No Iterations 5
time step continuity errors : sum local = 2.164e-08, global = -1.14879e-18, cumulative = 9.58216e-19
smoothSolver:  Solving for epsilon, Initial residual = 8.2971e-05, Final residual = 4.93256e-06, No Iterations 2
smoothSolver:  Solving for k, Initial residual = 0.00044832, Final residual = 8.14265e-06, No Iterations 3
ExecutionTime = 0.03 s  ClockTime = 0 s

Time = 10.16

Courant Number mean: 0.544032 max: 1.07501
smoothSolver:  Solving for Ux, Initial residual = 0.0004334, Final residual = 9.19082e-06, No Iterations 3
smoothSolver:  Solving for Uy, Initial residual = 0.000415341, Final residual = 9.09119e-06, No Iterations 3
GAMG:  Solving for p, Initial residual = 0.00266628, Final residual = 0.000265639, No Iterations 1
time step continuity errors : sum local = 6.89281e-06, global = 1.45848e-18, cumulative = 2.4167e-18
GAMG:  Solving for p, Initial residual = 0.000575586, Final residual = 3.17007e-07, No Iterations 5
time step continuity errors : sum local = 1.06472e-08, global = 1.49554e-18, cumulative = 3.91224e-18
smoothSolver:  Solving for epsilon, Initial residual = 7.7686e-05, Final residual = 4.72775e-06, No Iterations 2
smoothSolver:  Solving for k, Initial residual = 0.000432432, Final residual = 7.58797e-06, No Iterations 3
ExecutionTime = 0.03 s  ClockTime = 0 s

Time = 10.18

Courant Number mean: 0.544039 max: 1.07499
smoothSolver:  Solving for Ux, Initial residual = 0.000389441, Final residual = 7.96711e-06, No Iterations 3
smoothSolver:  Solving for Uy, Initial residual = 0.000381072, Final residual = 7.96466e-06, No Iterations 3
GAMG:  Solving for p, Initial residual = 0.00207198, Final residual = 5.04442e-05, No Iterations 2
time step continuity errors : sum local = 1.34128e-06, global = 1.1832e-18, cumulative = 5.09544e-18
GAMG:  Solving for p, Initial residual = 0.000417831, Final residual = 7.74608e-07, No Iterations 4
time step continuity errors : sum local = 2.51899e-08, global = -8.41739e-19, cumulative = 4.2537e-18
smoothSolver:  Solving for epsilon, Initial residual = 7.22445e-05, Final residual = 4.25925e-06, No Iterations 2
smoothSolver:  Solving for k, Initial residual = 0.000410239, Final residual = 7.28293e-06, No Iterations 3
ExecutionTime = 0.03 s  ClockTime = 0 s

Time = 10.2

Courant Number mean: 0.544037 max: 1.07499
smoothSolver:  Solving for Ux, Initial residual = 0.000355292, Final residual = 7.25517e-06, No Iterations 3
smoothSolver:  Solving for Uy, Initial residual = 0.00035041, Final residual = 7.89701e-06, No Iterations 3
GAMG:  Solving for p, Initial residual = 0.00195216, Final residual = 4.19006e-05, No Iterations 2
time step continuity errors : sum local = 1.12927e-06, global = 4.26163e-19, cumulative = 4.67987e-18
GAMG:  Solving for p, Initial residual = 0.000414044, Final residual = 7.27553e-07, No Iterations 4
time step continuity errors : sum local = 2.27504e-08, global = -5.29396e-21, cumulative = 4.67457e-18
smoothSolver:  Solving for epsilon, Initial residual = 7.05786e-05, Final residual = 4.23696e-06, No Iterations 2
smoothSolver:  Solving for k, Initial residual = 0.000393424, Final residual = 6.89329e-06, No Iterations 3
ExecutionTime = 0.03 s  ClockTime = 0 s

Time = 10.22

Courant Number mean: 0.544033 max: 1.07501
smoothSolver:  Solving for Ux, Initial residual = 0.000322368, Final residual = 6.79339e-06, No Iterations 3
smoothSolver:  Solving for Uy, Initial residual = 0.000325933, Final residual = 7.04933e-06, No Iterations 3
GAMG:  Solving for p, Initial residual = 0.00166887, Final residual = 4.28012e-05, No Iterations 2
time step continuity errors : sum local = 1.13878e-06, global = -6.03511e-19, cumulative = 4.07106e-18
GAMG:  Solving for p, Initial residual = 0.000360675, Final residual = 9.33551e-07, No Iterations 4
time step continuity errors : sum local = 2.86841e-08, global = 1.82377e-18, cumulative = 5.89483e-18
smoothSolver:  Solving for epsilon, Initial residual = 6.89647e-05, Final residual = 4.11994e-06, No Iterations 2
smoothSolver:  Solving for k, Initial residual = 0.000377959, Final residual = 6.7298e-06, No Iterations 3
ExecutionTime = 0.04 s  ClockTime = 0 s

Time = 10.24

Courant Number mean: 0.544028 max: 1.07503
smoothSolver:  Solving for Ux, Initial residual = 0.000296275, Final residual = 6.15764e-06, No Iterations 3
smoothSolver:  Solving for Uy, Initial residual = 0.00030804, Final residual = 7.4083e-06, No Iterations 3
GAMG:  Solving for p, Initial residual = 0.00165099, Final residual = 3.93404e-05, No Iterations 2
time step continuity errors : sum local = 1.05307e-06, global = -1.16732e-18, cumulative = 4.72751e-18
GAMG:  Solving for p, Initial residual = 0.000352205, Final residual = 7.14738e-07, No Iterations 4
time step continuity errors : sum local = 2.18122e-08, global = 1.09585e-18, cumulative = 5.82336e-18
smoothSolver:  Solving for epsilon, Initial residual = 6.33614e-05, Final residual = 3.78567e-06, No Iterations 2
smoothSolver:  Solving for k, Initial residual = 0.000359861, Final residual = 6.35926e-06, No Iterations 3
ExecutionTime = 0.04 s  ClockTime = 0 s

Time = 10.26

Courant Number mean: 0.544026 max: 1.07507
smoothSolver:  Solving for Ux, Initial residual = 0.000277064, Final residual = 6.09274e-06, No Iterations 3
smoothSolver:  Solving for Uy, Initial residual = 0.000289664, Final residual = 6.7662e-06, No Iterations 3
GAMG:  Solving for p, Initial residual = 0.00152226, Final residual = 3.92936e-05, No Iterations 2
time step continuity errors : sum local = 1.03619e-06, global = 1.43466e-18, cumulative = 7.25802e-18
GAMG:  Solving for p, Initial residual = 0.000327605, Final residual = 8.78593e-07, No Iterations 4
time step continuity errors : sum local = 2.60653e-08, global = -2.27375e-18, cumulative = 4.98427e-18
smoothSolver:  Solving for epsilon, Initial residual = 6.35419e-05, Final residual = 3.92538e-06, No Iterations 2
smoothSolver:  Solving for k, Initial residual = 0.000353368, Final residual = 6.24795e-06, No Iterations 3
ExecutionTime = 0.04 s  ClockTime = 0 s

Time = 10.28

Courant Number mean: 0.544025 max: 1.07511
smoothSolver:  Solving for Ux, Initial residual = 0.000263196, Final residual = 5.58237e-06, No Iterations 3
smoothSolver:  Solving for Uy, Initial residual = 0.000278236, Final residual = 7.15242e-06, No Iterations 3
GAMG:  Solving for p, Initial residual = 0.00150261, Final residual = 3.95922e-05, No Iterations 2
time step continuity errors : sum local = 1.04783e-06, global = 1.58289e-18, cumulative = 6.56716e-18
GAMG:  Solving for p, Initial residual = 0.000306393, Final residual = 5.63377e-07, No Iterations 4
time step continuity errors : sum local = 1.69291e-08, global = -5.84982e-19, cumulative = 5.98218e-18
smoothSolver:  Solving for epsilon, Initial residual = 6.05011e-05, Final residual = 3.9076e-06, No Iterations 2
smoothSolver:  Solving for k, Initial residual = 0.000342858, Final residual = 6.00377e-06, No Iterations 3
ExecutionTime = 0.04 s  ClockTime = 0 s

Time = 10.3

Courant Number mean: 0.54403 max: 1.07516
smoothSolver:  Solving for Ux, Initial residual = 0.000252808, Final residual = 5.52774e-06, No Iterations 3
smoothSolver:  Solving for Uy, Initial residual = 0.00026374, Final residual = 6.39727e-06, No Iterations 3
GAMG:  Solving for p, Initial residual = 0.00140969, Final residual = 3.87139e-05, No Iterations 2
time step continuity errors : sum local = 1.00822e-06, global = 3.01755e-19, cumulative = 6.28394e-18
GAMG:  Solving for p, Initial residual = 0.000282849, Final residual = 7.38887e-07, No Iterations 4
time step continuity errors : sum local = 2.13304e-08, global = -7.14684e-20, cumulative = 6.21247e-18
smoothSolver:  Solving for epsilon, Initial residual = 5.95396e-05, Final residual = 3.86099e-06, No Iterations 2
smoothSolver:  Solving for k, Initial residual = 0.00033652, Final residual = 6.15965e-06, No Iterations 3
ExecutionTime = 0.05 s  ClockTime = 0 s

Time = 10.32

Courant Number mean: 0.544035 max: 1.07521
smoothSolver:  Solving for Ux, Initial residual = 0.000245511, Final residual = 5.12916e-06, No Iterations 3
smoothSolver:  Solving for Uy, Initial residual = 0.000254273, Final residual = 6.27034e-06, No Iterations 3
GAMG:  Solving for p, Initial residual = 0.00134099, Final residual = 3.97669e-05, No Iterations 2
time step continuity errors : sum local = 1.03895e-06, global = -8.68209e-19, cumulative = 5.34426e-18
GAMG:  Solving for p, Initial residual = 0.000258856, Final residual = 4.73556e-07, No Iterations 4
time step continuity errors : sum local = 1.37551e-08, global = 5.3469e-19, cumulative = 5.87895e-18
smoothSolver:  Solving for epsilon, Initial residual = 5.75608e-05, Final residual = 3.64102e-06, No Iterations 2
smoothSolver:  Solving for k, Initial residual = 0.000324976, Final residual = 5.72515e-06, No Iterations 3
ExecutionTime = 0.05 s  ClockTime = 0 s

Time = 10.34

Courant Number mean: 0.544045 max: 1.07526
smoothSolver:  Solving for Ux, Initial residual = 0.000250881, Final residual = 5.76141e-06, No Iterations 3
smoothSolver:  Solving for Uy, Initial residual = 0.000242548, Final residual = 5.84016e-06, No Iterations 3
GAMG:  Solving for p, Initial residual = 0.00137507, Final residual = 4.00136e-05, No Iterations 2
time step continuity errors : sum local = 1.05056e-06, global = 1.27849e-18, cumulative = 7.15744e-18
GAMG:  Solving for p, Initial residual = 0.000265766, Final residual = 6.56039e-07, No Iterations 4
time step continuity errors : sum local = 1.84441e-08, global = -5.92923e-19, cumulative = 6.56452e-18
smoothSolver:  Solving for epsilon, Initial residual = 5.59712e-05, Final residual = 3.5396e-06, No Iterations 2
smoothSolver:  Solving for k, Initial residual = 0.000321331, Final residual = 5.51743e-06, No Iterations 3
ExecutionTime = 0.05 s  ClockTime = 0 s

Time = 10.36

Courant Number mean: 0.544056 max: 1.07531
smoothSolver:  Solving for Ux, Initial residual = 0.000252755, Final residual = 5.73313e-06, No Iterations 3
smoothSolver:  Solving for Uy, Initial residual = 0.000234014, Final residual = 5.50886e-06, No Iterations 3
GAMG:  Solving for p, Initial residual = 0.00130697, Final residual = 3.846e-05, No Iterations 2
time step continuity errors : sum local = 1.00852e-06, global = -2.62051e-19, cumulative = 6.30246e-18
GAMG:  Solving for p, Initial residual = 0.000239977, Final residual = 3.91335e-07, No Iterations 4
time step continuity errors : sum local = 1.09843e-08, global = 8.52327e-19, cumulative = 7.15479e-18
smoothSolver:  Solving for epsilon, Initial residual = 5.3849e-05, Final residual = 3.25234e-06, No Iterations 2
smoothSolver:  Solving for k, Initial residual = 0.000311611, Final residual = 4.9828e-06, No Iterations 3
ExecutionTime = 0.05 s  ClockTime = 0 s

Time = 10.38

Courant Number mean: 0.544069 max: 1.07536
smoothSolver:  Solving for Ux, Initial residual = 0.00025795, Final residual = 7.08416e-06, No Iterations 3
smoothSolver:  Solving for Uy, Initial residual = 0.000223239, Final residual = 5.23535e-06, No Iterations 3
GAMG:  Solving for p, Initial residual = 0.00130856, Final residual = 3.95871e-05, No Iterations 2
time step continuity errors : sum local = 1.05189e-06, global = -6.16746e-19, cumulative = 6.53805e-18
GAMG:  Solving for p, Initial residual = 0.000238098, Final residual = 5.89716e-07, No Iterations 4
time step continuity errors : sum local = 1.55896e-08, global = -1.70465e-18, cumulative = 4.83339e-18
smoothSolver:  Solving for epsilon, Initial residual = 5.16428e-05, Final residual = 3.06632e-06, No Iterations 2
smoothSolver:  Solving for k, Initial residual = 0.000306087, Final residual = 4.5715e-06, No Iterations 3
ExecutionTime = 0.06 s  ClockTime = 0 s

Time = 10.4

Courant Number mean: 0.544081 max: 1.07539
smoothSolver:  Solving for Ux, Initial residual = 0.000261753, Final residual = 6.54657e-06, No Iterations 3
smoothSolver:  Solving for Uy, Initial residual = 0.000214867, Final residual = 4.73134e-06, No Iterations 3
GAMG:  Solving for p, Initial residual = 0.00123248, Final residual = 3.55201e-05, No Iterations 2
time step continuity errors : sum local = 9.4553e-07, global = -2.99373e-18, cumulative = 1.83966e-18
GAMG:  Solving for p, Initial residual = 0.000208133, Final residual = 9.42964e-07, No Iterations 3
time step continuity errors : sum local = 2.49221e-08, global = 1.59348e-18, cumulative = 3.43314e-18
smoothSolver:  Solving for epsilon, Initial residual = 4.9306e-05, Final residual = 2.7519e-06, No Iterations 2
smoothSolver:  Solving for k, Initial residual = 0.000298659, Final residual = 4.15222e-06, No Iterations 3
ExecutionTime = 0.06 s  ClockTime = 0 s

Time = 10.42

Courant Number mean: 0.544094 max: 1.07542
smoothSolver:  Solving for Ux, Initial residual = 0.000265777, Final residual = 8.47612e-06, No Iterations 3
smoothSolver:  Solving for Uy, Initial residual = 0.000205031, Final residual = 4.50338e-06, No Iterations 3
GAMG:  Solving for p, Initial residual = 0.00122816, Final residual = 3.77303e-05, No Iterations 2
time step continuity errors : sum local = 1.01597e-06, global = -1.68877e-18, cumulative = 1.74437e-18
GAMG:  Solving for p, Initial residual = 0.000212821, Final residual = 4.72695e-07, No Iterations 4
time step continuity errors : sum local = 1.29996e-08, global = -1.70465e-18, cumulative = 3.97152e-20
smoothSolver:  Solving for epsilon, Initial residual = 4.58513e-05, Final residual = 2.53645e-06, No Iterations 2
smoothSolver:  Solving for k, Initial residual = 0.000291496, Final residual = 3.85951e-06, No Iterations 3
ExecutionTime = 0.06 s  ClockTime = 0 s

Time = 10.44

Courant Number mean: 0.544105 max: 1.07544
smoothSolver:  Solving for Ux, Initial residual = 0.000263749, Final residual = 7.89965e-06, No Iterations 3
smoothSolver:  Solving for Uy, Initial residual = 0.000196969, Final residual = 4.08397e-06, No Iterations 3
GAMG:  Solving for p, Initial residual = 0.00113776, Final residual = 3.18401e-05, No Iterations 2
time step continuity errors : sum local = 8.62352e-07, global = 5.63806e-19, cumulative = 6.03521e-19
GAMG:  Solving for p, Initial residual = 0.000181107, Final residual = 6.58613e-07, No Iterations 3
time step continuity errors : sum local = 1.87743e-08, global = -3.19226e-18, cumulative = -2.58873e-18
smoothSolver:  Solving for epsilon, Initial residual = 4.48322e-05, Final residual = 9.71998e-06, No Iterations 1
smoothSolver:  Solving for k, Initial residual = 0.000287898, Final residual = 3.63396e-06, No Iterations 3
ExecutionTime = 0.06 s  ClockTime = 0 s

Time = 10.46

Courant Number mean: 0.544116 max: 1.07545
smoothSolver:  Solving for Ux, Initial residual = 0.000265699, Final residual = 9.46085e-06, No Iterations 3
smoothSolver:  Solving for Uy, Initial residual = 0.00018774, Final residual = 3.82161e-06, No Iterations 3
GAMG:  Solving for p, Initial residual = 0.00112118, Final residual = 3.474e-05, No Iterations 2
time step continuity errors : sum local = 9.49472e-07, global = 1.00585e-18, cumulative = -1.58288e-18
GAMG:  Solving for p, Initial residual = 0.000187923, Final residual = 9.9575e-07, No Iterations 3
time step continuity errors : sum local = 2.95651e-08, global = -2.74227e-18, cumulative = -4.32515e-18
smoothSolver:  Solving for epsilon, Initial residual = 4.38785e-05, Final residual = 9.45918e-06, No Iterations 1
smoothSolver:  Solving for k, Initial residual = 0.000285096, Final residual = 3.45914e-06, No Iterations 3
ExecutionTime = 0.06 s  ClockTime = 0 s

Time = 10.48

Courant Number mean: 0.544124 max: 1.07546
smoothSolver:  Solving for Ux, Initial residual = 0.000259256, Final residual = 8.69401e-06, No Iterations 3
smoothSolver:  Solving for Uy, Initial residual = 0.000182133, Final residual = 3.48838e-06, No Iterations 3
GAMG:  Solving for p, Initial residual = 0.00102888, Final residual = 2.91559e-05, No Iterations 2
time step continuity errors : sum local = 8.06341e-07, global = 3.78518e-19, cumulative = -3.94663e-18
GAMG:  Solving for p, Initial residual = 0.000158698, Final residual = 4.37967e-07, No Iterations 3
time step continuity errors : sum local = 1.36844e-08, global = -1.43466e-18, cumulative = -5.3813e-18
smoothSolver:  Solving for epsilon, Initial residual = 4.25396e-05, Final residual = 9.08646e-06, No Iterations 1
smoothSolver:  Solving for k, Initial residual = 0.000281889, Final residual = 3.33421e-06, No Iterations 3
ExecutionTime = 0.07 s  ClockTime = 0 s

Time = 10.5

Courant Number mean: 0.544132 max: 1.07546
smoothSolver:  Solving for Ux, Initial residual = 0.000256577, Final residual = 9.60747e-06, No Iterations 3
smoothSolver:  Solving for Uy, Initial residual = 0.000174227, Final residual = 9.65814e-06, No Iterations 2
GAMG:  Solving for p, Initial residual = 0.00100553, Final residual = 3.06221e-05, No Iterations 2
time step continuity errors : sum local = 8.51214e-07, global = 1.00585e-19, cumulative = -5.28071e-18
GAMG:  Solving for p, Initial residual = 0.000160188, Final residual = 7.89607e-07, No Iterations 3
time step continuity errors : sum local = 2.46102e-08, global = 2.09111e-19, cumulative = -5.0716e-18
smoothSolver:  Solving for epsilon, Initial residual = 4.22059e-05, Final residual = 9.00802e-06, No Iterations 1
smoothSolver:  Solving for k, Initial residual = 0.00027793, Final residual = 3.13026e-06, No Iterations 3
ExecutionTime = 0.07 s  ClockTime = 0 s

Time = 10.52

Courant Number mean: 0.544138 max: 1.07545
smoothSolver:  Solving for Ux, Initial residual = 0.000241142, Final residual = 7.9428e-06, No Iterations 3
smoothSolver:  Solving for Uy, Initial residual = 0.000169203, Final residual = 9.04231e-06, No Iterations 2
GAMG:  Solving for p, Initial residual = 0.000940581, Final residual = 2.68393e-05, No Iterations 2
time step continuity errors : sum local = 7.55985e-07, global = 1.12497e-18, cumulative = -3.94663e-18
GAMG:  Solving for p, Initial residual = 0.000147889, Final residual = 3.27093e-07, No Iterations 3
time step continuity errors : sum local = 1.11448e-08, global = -2.12023e-18, cumulative = -6.06686e-18
smoothSolver:  Solving for epsilon, Initial residual = 4.1151e-05, Final residual = 8.88453e-06, No Iterations 1
smoothSolver:  Solving for k, Initial residual = 0.000272705, Final residual = 3.03079e-06, No Iterations 3
ExecutionTime = 0.07 s  ClockTime = 0 s

Time = 10.54

Courant Number mean: 0.544143 max: 1.07544
smoothSolver:  Solving for Ux, Initial residual = 0.000232587, Final residual = 8.14381e-06, No Iterations 3
smoothSolver:  Solving for Uy, Initial residual = 0.000162217, Final residual = 8.4743e-06, No Iterations 2
GAMG:  Solving for p, Initial residual = 0.000933293, Final residual = 2.73938e-05, No Iterations 2
time step continuity errors : sum local = 7.75247e-07, global = -1.1832e-18, cumulative = -7.25006e-18
GAMG:  Solving for p, Initial residual = 0.000146706, Final residual = 6.45801e-07, No Iterations 3
time step continuity errors : sum local = 2.10012e-08, global = -4.79103e-19, cumulative = -7.72917e-18
smoothSolver:  Solving for epsilon, Initial residual = 3.99811e-05, Final residual = 8.61604e-06, No Iterations 1
smoothSolver:  Solving for k, Initial residual = 0.000268341, Final residual = 2.90915e-06, No Iterations 3
ExecutionTime = 0.07 s  ClockTime = 0 s

Time = 10.56

Courant Number mean: 0.544147 max: 1.07543
smoothSolver:  Solving for Ux, Initial residual = 0.000218891, Final residual = 6.4933e-06, No Iterations 3
smoothSolver:  Solving for Uy, Initial residual = 0.000157892, Final residual = 8.07895e-06, No Iterations 2
GAMG:  Solving for p, Initial residual = 0.000867476, Final residual = 2.53299e-05, No Iterations 2
time step continuity errors : sum local = 7.23723e-07, global = 5.55865e-19, cumulative = -7.1733e-18
GAMG:  Solving for p, Initial residual = 0.000139134, Final residual = 2.88279e-07, No Iterations 3
time step continuity errors : sum local = 1.0435e-08, global = 1.68612e-18, cumulative = -5.48717e-18
smoothSolver:  Solving for epsilon, Initial residual = 3.90854e-05, Final residual = 8.39651e-06, No Iterations 1
smoothSolver:  Solving for k, Initial residual = 0.000263616, Final residual = 2.84059e-06, No Iterations 3
ExecutionTime = 0.08 s  ClockTime = 0 s

Time = 10.58

Courant Number mean: 0.54415 max: 1.07541
smoothSolver:  Solving for Ux, Initial residual = 0.000213473, Final residual = 6.77086e-06, No Iterations 3
smoothSolver:  Solving for Uy, Initial residual = 0.000150944, Final residual = 7.65722e-06, No Iterations 2
GAMG:  Solving for p, Initial residual = 0.00088565, Final residual = 2.47014e-05, No Iterations 2
time step continuity errors : sum local = 7.12014e-07, global = 5.29396e-21, cumulative = -5.48188e-18
GAMG:  Solving for p, Initial residual = 0.000137969, Final residual = 5.71155e-07, No Iterations 3
time step continuity errors : sum local = 1.92379e-08, global = -8.78797e-19, cumulative = -6.36068e-18
smoothSolver:  Solving for epsilon, Initial residual = 3.82295e-05, Final residual = 8.04486e-06, No Iterations 1
smoothSolver:  Solving for k, Initial residual = 0.000258781, Final residual = 2.70407e-06, No Iterations 3
ExecutionTime = 0.08 s  ClockTime = 0 s

Time = 10.6

Courant Number mean: 0.544151 max: 1.0754
smoothSolver:  Solving for Ux, Initial residual = 0.000202627, Final residual = 5.29052e-06, No Iterations 3
smoothSolver:  Solving for Uy, Initial residual = 0.000147101, Final residual = 7.25373e-06, No Iterations 2
GAMG:  Solving for p, Initial residual = 0.000838299, Final residual = 2.42063e-05, No Iterations 2
time step continuity errors : sum local = 7.00391e-07, global = 3.83801e-19, cumulative = -5.97688e-18
GAMG:  Solving for p, Initial residual = 0.000135018, Final residual = 3.09941e-07, No Iterations 3
time step continuity errors : sum local = 1.14618e-08, global = -1.2679e-18, cumulative = -7.24478e-18
smoothSolver:  Solving for epsilon, Initial residual = 3.67331e-05, Final residual = 7.71604e-06, No Iterations 1
smoothSolver:  Solving for k, Initial residual = 0.00025336, Final residual = 2.61176e-06, No Iterations 3
ExecutionTime = 0.08 s  ClockTime = 0 s

Time = 10.62

Courant Number mean: 0.544153 max: 1.07538
smoothSolver:  Solving for Ux, Initial residual = 0.000196463, Final residual = 5.46803e-06, No Iterations 3
smoothSolver:  Solving for Uy, Initial residual = 0.000140003, Final residual = 7.07981e-06, No Iterations 2
GAMG:  Solving for p, Initial residual = 0.000858437, Final residual = 2.29052e-05, No Iterations 2
time step continuity errors : sum local = 6.71457e-07, global = -6.19393e-19, cumulative = -7.86417e-18
GAMG:  Solving for p, Initial residual = 0.000132346, Final residual = 5.39547e-07, No Iterations 3
time step continuity errors : sum local = 1.86751e-08, global = -9.05266e-19, cumulative = -8.76944e-18
smoothSolver:  Solving for epsilon, Initial residual = 3.56368e-05, Final residual = 7.40058e-06, No Iterations 1
smoothSolver:  Solving for k, Initial residual = 0.00024823, Final residual = 9.86602e-06, No Iterations 2
ExecutionTime = 0.08 s  ClockTime = 0 s

Time = 10.64

Courant Number mean: 0.544153 max: 1.07536
smoothSolver:  Solving for Ux, Initial residual = 0.00018786, Final residual = 4.68196e-06, No Iterations 3
smoothSolver:  Solving for Uy, Initial residual = 0.000137549, Final residual = 6.80051e-06, No Iterations 2
GAMG:  Solving for p, Initial residual = 0.000816558, Final residual = 2.30634e-05, No Iterations 2
time step continuity errors : sum local = 6.75573e-07, global = -3.70577e-19, cumulative = -9.14001e-18
GAMG:  Solving for p, Initial residual = 0.000132747, Final residual = 3.52685e-07, No Iterations 3
time step continuity errors : sum local = 1.30789e-08, global = -8.04681e-19, cumulative = -9.9447e-18
smoothSolver:  Solving for epsilon, Initial residual = 3.40648e-05, Final residual = 7.03286e-06, No Iterations 1
smoothSolver:  Solving for k, Initial residual = 0.000242811, Final residual = 9.65382e-06, No Iterations 2
ExecutionTime = 0.08 s  ClockTime = 0 s

Time = 10.66

Courant Number mean: 0.544154 max: 1.07533
smoothSolver:  Solving for Ux, Initial residual = 0.000181546, Final residual = 4.37643e-06, No Iterations 3
smoothSolver:  Solving for Uy, Initial residual = 0.000132391, Final residual = 6.92964e-06, No Iterations 2
GAMG:  Solving for p, Initial residual = 0.000826631, Final residual = 2.1756e-05, No Iterations 2
time step continuity errors : sum local = 6.47106e-07, global = -1.15673e-18, cumulative = -1.11014e-17
GAMG:  Solving for p, Initial residual = 0.000130328, Final residual = 5.32928e-07, No Iterations 3
time step continuity errors : sum local = 1.87948e-08, global = 1.50348e-18, cumulative = -9.59794e-18
smoothSolver:  Solving for epsilon, Initial residual = 3.32529e-05, Final residual = 6.77259e-06, No Iterations 1
smoothSolver:  Solving for k, Initial residual = 0.000238418, Final residual = 9.2468e-06, No Iterations 2
ExecutionTime = 0.09 s  ClockTime = 0 s

Time = 10.68

Courant Number mean: 0.544155 max: 1.07531
smoothSolver:  Solving for Ux, Initial residual = 0.000174136, Final residual = 4.05612e-06, No Iterations 3
smoothSolver:  Solving for Uy, Initial residual = 0.000132694, Final residual = 6.80779e-06, No Iterations 2
GAMG:  Solving for p, Initial residual = 0.000803223, Final residual = 2.17629e-05, No Iterations 2
time step continuity errors : sum local = 6.46949e-07, global = 2.11758e-19, cumulative = -9.38618e-18
GAMG:  Solving for p, Initial residual = 0.000130082, Final residual = 3.88878e-07, No Iterations 3
time step continuity errors : sum local = 1.44963e-08, global = 1.31687e-18, cumulative = -8.06931e-18
smoothSolver:  Solving for epsilon, Initial residual = 3.19839e-05, Final residual = 6.43102e-06, No Iterations 1
smoothSolver:  Solving for k, Initial residual = 0.000234129, Final residual = 9.10231e-06, No Iterations 2
ExecutionTime = 0.09 s  ClockTime = 0 s

Time = 10.7

Courant Number mean: 0.544156 max: 1.07529
smoothSolver:  Solving for Ux, Initial residual = 0.000168511, Final residual = 9.49854e-06, No Iterations 2
smoothSolver:  Solving for Uy, Initial residual = 0.000129983, Final residual = 6.97701e-06, No Iterations 2
GAMG:  Solving for p, Initial residual = 0.000789967, Final residual = 2.05445e-05, No Iterations 2
time step continuity errors : sum local = 6.17615e-07, global = -1.52995e-18, cumulative = -9.59927e-18
GAMG:  Solving for p, Initial residual = 0.000130142, Final residual = 5.45538e-07, No Iterations 3
time step continuity errors : sum local = 1.95012e-08, global = 1.61069e-18, cumulative = -7.98858e-18
smoothSolver:  Solving for epsilon, Initial residual = 3.12783e-05, Final residual = 6.18986e-06, No Iterations 1
smoothSolver:  Solving for k, Initial residual = 0.000229691, Final residual = 8.87686e-06, No Iterations 2
ExecutionTime = 0.09 s  ClockTime = 0 s

Time = 10.72

Courant Number mean: 0.544158 max: 1.07528
smoothSolver:  Solving for Ux, Initial residual = 0.000162216, Final residual = 9.09589e-06, No Iterations 2
smoothSolver:  Solving for Uy, Initial residual = 0.000131, Final residual = 6.91137e-06, No Iterations 2
GAMG:  Solving for p, Initial residual = 0.000775559, Final residual = 2.00012e-05, No Iterations 2
time step continuity errors : sum local = 6.0341e-07, global = 3.49401e-19, cumulative = -7.63918e-18
GAMG:  Solving for p, Initial residual = 0.000130426, Final residual = 3.98126e-07, No Iterations 3
time step continuity errors : sum local = 1.52428e-08, global = 5.79688e-19, cumulative = -7.05949e-18
smoothSolver:  Solving for epsilon, Initial residual = 3.00003e-05, Final residual = 5.86797e-06, No Iterations 1
smoothSolver:  Solving for k, Initial residual = 0.000224877, Final residual = 8.63658e-06, No Iterations 2
ExecutionTime = 0.09 s  ClockTime = 0 s

Time = 10.74

Courant Number mean: 0.54416 max: 1.07526
smoothSolver:  Solving for Ux, Initial residual = 0.000157396, Final residual = 8.45582e-06, No Iterations 2
smoothSolver:  Solving for Uy, Initial residual = 0.000128285, Final residual = 7.01628e-06, No Iterations 2
GAMG:  Solving for p, Initial residual = 0.000756818, Final residual = 1.96583e-05, No Iterations 2
time step continuity errors : sum local = 6.00966e-07, global = 7.27919e-19, cumulative = -6.33157e-18
GAMG:  Solving for p, Initial residual = 0.000125515, Final residual = 5.34725e-07, No Iterations 3
time step continuity errors : sum local = 1.94303e-08, global = 1.46775e-18, cumulative = -4.86382e-18
smoothSolver:  Solving for epsilon, Initial residual = 2.91429e-05, Final residual = 5.71974e-06, No Iterations 1
smoothSolver:  Solving for k, Initial residual = 0.000221258, Final residual = 8.65277e-06, No Iterations 2
ExecutionTime = 0.1 s  ClockTime = 0 s

Time = 10.76

Courant Number mean: 0.544163 max: 1.07524
smoothSolver:  Solving for Ux, Initial residual = 0.000152401, Final residual = 8.11598e-06, No Iterations 2
smoothSolver:  Solving for Uy, Initial residual = 0.000129124, Final residual = 7.05538e-06, No Iterations 2
GAMG:  Solving for p, Initial residual = 0.000739929, Final residual = 1.85584e-05, No Iterations 2
time step continuity errors : sum local = 5.72023e-07, global = -9.3703e-19, cumulative = -5.80085e-18
GAMG:  Solving for p, Initial residual = 0.000124952, Final residual = 4.05264e-07, No Iterations 3
time step continuity errors : sum local = 1.57208e-08, global = -3.05594e-18, cumulative = -8.85679e-18
smoothSolver:  Solving for epsilon, Initial residual = 2.7841e-05, Final residual = 5.39087e-06, No Iterations 1
smoothSolver:  Solving for k, Initial residual = 0.000217556, Final residual = 8.63286e-06, No Iterations 2
ExecutionTime = 0.1 s  ClockTime = 0 s

Time = 10.78

Courant Number mean: 0.544167 max: 1.07522
smoothSolver:  Solving for Ux, Initial residual = 0.000147685, Final residual = 7.61827e-06, No Iterations 2
smoothSolver:  Solving for Uy, Initial residual = 0.000127233, Final residual = 7.03741e-06, No Iterations 2
GAMG:  Solving for p, Initial residual = 0.000722512, Final residual = 1.87022e-05, No Iterations 2
time step continuity errors : sum local = 5.82467e-07, global = -1.52731e-18, cumulative = -1.03841e-17
GAMG:  Solving for p, Initial residual = 0.000120738, Final residual = 5.22771e-07, No Iterations 3
time step continuity errors : sum local = 1.92684e-08, global = -3.44107e-20, cumulative = -1.04185e-17
smoothSolver:  Solving for epsilon, Initial residual = 2.7428e-05, Final residual = 5.30804e-06, No Iterations 1
smoothSolver:  Solving for k, Initial residual = 0.00021374, Final residual = 8.71218e-06, No Iterations 2
ExecutionTime = 0.11 s  ClockTime = 0 s

Time = 10.8

Courant Number mean: 0.544171 max: 1.0752
smoothSolver:  Solving for Ux, Initial residual = 0.000144068, Final residual = 7.33851e-06, No Iterations 2
smoothSolver:  Solving for Uy, Initial residual = 0.000127883, Final residual = 7.03198e-06, No Iterations 2
GAMG:  Solving for p, Initial residual = 0.000704994, Final residual = 1.736e-05, No Iterations 2
time step continuity errors : sum local = 5.47606e-07, global = 1.16467e-19, cumulative = -1.0302e-17
GAMG:  Solving for p, Initial residual = 0.000119407, Final residual = 4.15693e-07, No Iterations 3
time step continuity errors : sum local = 1.62462e-08, global = 1.30761e-18, cumulative = -8.99443e-18
smoothSolver:  Solving for epsilon, Initial residual = 2.64859e-05, Final residual = 5.14063e-06, No Iterations 1
smoothSolver:  Solving for k, Initial residual = 0.000210666, Final residual = 8.82406e-06, No Iterations 2
ExecutionTime = 0.11 s  ClockTime = 0 s

Time = 10.82

Courant Number mean: 0.544176 max: 1.07518
smoothSolver:  Solving for Ux, Initial residual = 0.000139938, Final residual = 6.92895e-06, No Iterations 2
smoothSolver:  Solving for Uy, Initial residual = 0.000125463, Final residual = 6.91049e-06, No Iterations 2
GAMG:  Solving for p, Initial residual = 0.000686247, Final residual = 1.64149e-05, No Iterations 2
time step continuity errors : sum local = 5.00832e-07, global = -7.12037e-19, cumulative = -9.70647e-18
GAMG:  Solving for p, Initial residual = 0.000115438, Final residual = 5.52263e-07, No Iterations 3
time step continuity errors : sum local = 1.91334e-08, global = 6.03511e-19, cumulative = -9.10296e-18
smoothSolver:  Solving for epsilon, Initial residual = 2.58302e-05, Final residual = 5.06394e-06, No Iterations 1
smoothSolver:  Solving for k, Initial residual = 0.000207064, Final residual = 8.91506e-06, No Iterations 2
ExecutionTime = 0.11 s  ClockTime = 0 s

Time = 10.84

Courant Number mean: 0.544181 max: 1.07517
smoothSolver:  Solving for Ux, Initial residual = 0.000137049, Final residual = 6.743e-06, No Iterations 2
smoothSolver:  Solving for Uy, Initial residual = 0.000125985, Final residual = 6.87542e-06, No Iterations 2
GAMG:  Solving for p, Initial residual = 0.000669138, Final residual = 1.64107e-05, No Iterations 2
time step continuity errors : sum local = 5.29002e-07, global = -3.58666e-19, cumulative = -9.46162e-18
GAMG:  Solving for p, Initial residual = 0.000113746, Final residual = 4.21148e-07, No Iterations 3
time step continuity errors : sum local = 1.65474e-08, global = 2.15729e-19, cumulative = -9.24589e-18
smoothSolver:  Solving for epsilon, Initial residual = 2.51518e-05, Final residual = 4.98178e-06, No Iterations 1
smoothSolver:  Solving for k, Initial residual = 0.000204219, Final residual = 8.97755e-06, No Iterations 2
ExecutionTime = 0.11 s  ClockTime = 0 s

Time = 10.86

Courant Number mean: 0.544187 max: 1.07515
smoothSolver:  Solving for Ux, Initial residual = 0.000133578, Final residual = 6.41848e-06, No Iterations 2
smoothSolver:  Solving for Uy, Initial residual = 0.000123307, Final residual = 6.69671e-06, No Iterations 2
GAMG:  Solving for p, Initial residual = 0.000649064, Final residual = 1.55167e-05, No Iterations 2
time step continuity errors : sum local = 4.80741e-07, global = -1.00585e-18, cumulative = -1.02517e-17
GAMG:  Solving for p, Initial residual = 0.000109194, Final residual = 5.26477e-07, No Iterations 3
time step continuity errors : sum local = 1.84614e-08, global = -1.45451e-18, cumulative = -1.17063e-17
smoothSolver:  Solving for epsilon, Initial residual = 2.42036e-05, Final residual = 4.84753e-06, No Iterations 1
smoothSolver:  Solving for k, Initial residual = 0.000200888, Final residual = 9.04179e-06, No Iterations 2
ExecutionTime = 0.11 s  ClockTime = 0 s

Time = 10.88

Courant Number mean: 0.544193 max: 1.07514
smoothSolver:  Solving for Ux, Initial residual = 0.000131319, Final residual = 6.32895e-06, No Iterations 2
smoothSolver:  Solving for Uy, Initial residual = 0.00012315, Final residual = 6.63954e-06, No Iterations 2
GAMG:  Solving for p, Initial residual = 0.000629905, Final residual = 1.42841e-05, No Iterations 2
time step continuity errors : sum local = 4.48944e-07, global = -1.25599e-18, cumulative = -1.29623e-17
GAMG:  Solving for p, Initial residual = 0.000107939, Final residual = 3.47818e-07, No Iterations 3
time step continuity errors : sum local = 1.37658e-08, global = -1.52069e-18, cumulative = -1.44829e-17
smoothSolver:  Solving for epsilon, Initial residual = 2.37149e-05, Final residual = 4.84664e-06, No Iterations 1
smoothSolver:  Solving for k, Initial residual = 0.000198546, Final residual = 9.05135e-06, No Iterations 2
ExecutionTime = 0.12 s  ClockTime = 0 s

Time = 10.9

Courant Number mean: 0.544199 max: 1.07512
smoothSolver:  Solving for Ux, Initial residual = 0.000128965, Final residual = 6.07064e-06, No Iterations 2
smoothSolver:  Solving for Uy, Initial residual = 0.000120536, Final residual = 6.45205e-06, No Iterations 2
GAMG:  Solving for p, Initial residual = 0.000608086, Final residual = 1.48867e-05, No Iterations 2
time step continuity errors : sum local = 4.66553e-07, global = 5.51895e-19, cumulative = -1.3931e-17
GAMG:  Solving for p, Initial residual = 0.000102174, Final residual = 5.08059e-07, No Iterations 3
time step continuity errors : sum local = 1.79708e-08, global = 2.69859e-18, cumulative = -1.12325e-17
smoothSolver:  Solving for epsilon, Initial residual = 2.29368e-05, Final residual = 4.748e-06, No Iterations 1
smoothSolver:  Solving for k, Initial residual = 0.000195502, Final residual = 9.06758e-06, No Iterations 2
ExecutionTime = 0.12 s  ClockTime = 0 s

Time = 10.92

Courant Number mean: 0.544206 max: 1.07511
smoothSolver:  Solving for Ux, Initial residual = 0.000127353, Final residual = 5.99795e-06, No Iterations 2
smoothSolver:  Solving for Uy, Initial residual = 0.00012029, Final residual = 6.43991e-06, No Iterations 2
GAMG:  Solving for p, Initial residual = 0.000590298, Final residual = 1.36176e-05, No Iterations 2
time step continuity errors : sum local = 4.33981e-07, global = 3.40137e-18, cumulative = -7.83108e-18
GAMG:  Solving for p, Initial residual = 0.00010104, Final residual = 3.48493e-07, No Iterations 3
time step continuity errors : sum local = 1.38362e-08, global = -1.05879e-20, cumulative = -7.84167e-18
smoothSolver:  Solving for epsilon, Initial residual = 2.23597e-05, Final residual = 4.67313e-06, No Iterations 1
smoothSolver:  Solving for k, Initial residual = 0.000193962, Final residual = 9.03057e-06, No Iterations 2
ExecutionTime = 0.12 s  ClockTime = 0 s

Time = 10.94

Courant Number mean: 0.544213 max: 1.0751
smoothSolver:  Solving for Ux, Initial residual = 0.000125682, Final residual = 5.78728e-06, No Iterations 2
smoothSolver:  Solving for Uy, Initial residual = 0.000117447, Final residual = 6.21061e-06, No Iterations 2
GAMG:  Solving for p, Initial residual = 0.000572024, Final residual = 1.43823e-05, No Iterations 2
time step continuity errors : sum local = 4.55233e-07, global = -1.53392e-18, cumulative = -9.3756e-18
GAMG:  Solving for p, Initial residual = 9.48515e-05, Final residual = 4.80348e-07, No Iterations 3
time step continuity errors : sum local = 1.7263e-08, global = -1.16467e-19, cumulative = -9.49206e-18
smoothSolver:  Solving for epsilon, Initial residual = 2.16387e-05, Final residual = 4.57628e-06, No Iterations 1
smoothSolver:  Solving for k, Initial residual = 0.000191001, Final residual = 9.02556e-06, No Iterations 2
ExecutionTime = 0.12 s  ClockTime = 0 s

Time = 10.96

Courant Number mean: 0.54422 max: 1.07509
smoothSolver:  Solving for Ux, Initial residual = 0.000124155, Final residual = 5.71515e-06, No Iterations 2
smoothSolver:  Solving for Uy, Initial residual = 0.000116676, Final residual = 6.21709e-06, No Iterations 2
GAMG:  Solving for p, Initial residual = 0.000556531, Final residual = 1.31256e-05, No Iterations 2
time step continuity errors : sum local = 4.22452e-07, global = -1.49025e-18, cumulative = -1.09823e-17
GAMG:  Solving for p, Initial residual = 9.52937e-05, Final residual = 3.52916e-07, No Iterations 3
time step continuity errors : sum local = 1.39872e-08, global = -5.67777e-19, cumulative = -1.15501e-17
smoothSolver:  Solving for epsilon, Initial residual = 2.10228e-05, Final residual = 4.47596e-06, No Iterations 1
smoothSolver:  Solving for k, Initial residual = 0.000189132, Final residual = 8.95373e-06, No Iterations 2
ExecutionTime = 0.13 s  ClockTime = 0 s

Time = 10.98

Courant Number mean: 0.544227 max: 1.07508
smoothSolver:  Solving for Ux, Initial residual = 0.000122611, Final residual = 5.61401e-06, No Iterations 2
smoothSolver:  Solving for Uy, Initial residual = 0.000113522, Final residual = 6.00956e-06, No Iterations 2
GAMG:  Solving for p, Initial residual = 0.000542218, Final residual = 1.40724e-05, No Iterations 2
time step continuity errors : sum local = 4.48225e-07, global = -9.58206e-19, cumulative = -1.25083e-17
GAMG:  Solving for p, Initial residual = 8.96284e-05, Final residual = 4.61002e-07, No Iterations 3
time step continuity errors : sum local = 1.68013e-08, global = 1.09585e-18, cumulative = -1.14124e-17
smoothSolver:  Solving for epsilon, Initial residual = 2.03481e-05, Final residual = 4.40036e-06, No Iterations 1
smoothSolver:  Solving for k, Initial residual = 0.000186544, Final residual = 8.93057e-06, No Iterations 2
ExecutionTime = 0.13 s  ClockTime = 0 s

Time = 11

Courant Number mean: 0.544234 max: 1.07508
smoothSolver:  Solving for Ux, Initial residual = 0.000121189, Final residual = 5.53727e-06, No Iterations 2
smoothSolver:  Solving for Uy, Initial residual = 0.000112729, Final residual = 6.04156e-06, No Iterations 2
GAMG:  Solving for p, Initial residual = 0.000529263, Final residual = 1.27874e-05, No Iterations 2
time step continuity errors : sum local = 4.14794e-07, global = 1.23084e-18, cumulative = -1.01816e-17
GAMG:  Solving for p, Initial residual = 9.0806e-05, Final residual = 3.61722e-07, No Iterations 3
time step continuity errors : sum local = 1.42743e-08, global = -9.635e-19, cumulative = -1.11451e-17
smoothSolver:  Solving for epsilon, Initial residual = 1.9994e-05, Final residual = 4.26605e-06, No Iterations 1
smoothSolver:  Solving for k, Initial residual = 0.000184729, Final residual = 8.86546e-06, No Iterations 2
ExecutionTime = 0.13 s  ClockTime = 0 s

Time = 11.02

Courant Number mean: 0.544241 max: 1.07507
smoothSolver:  Solving for Ux, Initial residual = 0.000119803, Final residual = 5.51057e-06, No Iterations 2
smoothSolver:  Solving for Uy, Initial residual = 0.000110052, Final residual = 5.88699e-06, No Iterations 2
GAMG:  Solving for p, Initial residual = 0.000518673, Final residual = 1.39147e-05, No Iterations 2
time step continuity errors : sum local = 4.44511e-07, global = 1.17129e-18, cumulative = -9.97381e-18
GAMG:  Solving for p, Initial residual = 8.60124e-05, Final residual = 4.50874e-07, No Iterations 3
time step continuity errors : sum local = 1.6603e-08, global = 1.12232e-18, cumulative = -8.85149e-18
smoothSolver:  Solving for epsilon, Initial residual = 1.94498e-05, Final residual = 4.1962e-06, No Iterations 1
smoothSolver:  Solving for k, Initial residual = 0.000181704, Final residual = 8.84913e-06, No Iterations 2
ExecutionTime = 0.13 s  ClockTime = 0 s

Time = 11.04

Courant Number mean: 0.544249 max: 1.07506
smoothSolver:  Solving for Ux, Initial residual = 0.000118542, Final residual = 5.42314e-06, No Iterations 2
smoothSolver:  Solving for Uy, Initial residual = 0.000109277, Final residual = 5.92912e-06, No Iterations 2
GAMG:  Solving for p, Initial residual = 0.000509083, Final residual = 1.25834e-05, No Iterations 2
time step continuity errors : sum local = 4.09027e-07, global = -1.27717e-18, cumulative = -1.01287e-17
GAMG:  Solving for p, Initial residual = 8.72533e-05, Final residual = 3.68872e-07, No Iterations 3
time step continuity errors : sum local = 1.45116e-08, global = -1.30099e-18, cumulative = -1.14296e-17
smoothSolver:  Solving for epsilon, Initial residual = 1.90661e-05, Final residual = 4.03516e-06, No Iterations 1
smoothSolver:  Solving for k, Initial residual = 0.000179537, Final residual = 8.76309e-06, No Iterations 2
ExecutionTime = 0.13 s  ClockTime = 0 s

Time = 11.06

Courant Number mean: 0.544257 max: 1.07506
smoothSolver:  Solving for Ux, Initial residual = 0.000117285, Final residual = 5.41622e-06, No Iterations 2
smoothSolver:  Solving for Uy, Initial residual = 0.000107047, Final residual = 5.77041e-06, No Iterations 2
GAMG:  Solving for p, Initial residual = 0.000500797, Final residual = 1.38882e-05, No Iterations 2
time step continuity errors : sum local = 4.42997e-07, global = -1.42937e-19, cumulative = -1.15726e-17
GAMG:  Solving for p, Initial residual = 8.3311e-05, Final residual = 4.51872e-07, No Iterations 3
time step continuity errors : sum local = 1.66965e-08, global = -1.96935e-18, cumulative = -1.35419e-17
smoothSolver:  Solving for epsilon, Initial residual = 1.8633e-05, Final residual = 3.9847e-06, No Iterations 1
smoothSolver:  Solving for k, Initial residual = 0.00017688, Final residual = 8.70551e-06, No Iterations 2
ExecutionTime = 0.14 s  ClockTime = 0 s

Time = 11.08

Courant Number mean: 0.544265 max: 1.07505
smoothSolver:  Solving for Ux, Initial residual = 0.000116067, Final residual = 5.32672e-06, No Iterations 2
smoothSolver:  Solving for Uy, Initial residual = 0.000106483, Final residual = 5.82131e-06, No Iterations 2
GAMG:  Solving for p, Initial residual = 0.000494564, Final residual = 1.24234e-05, No Iterations 2
time step continuity errors : sum local = 4.03759e-07, global = 3.40798e-18, cumulative = -1.0134e-17
GAMG:  Solving for p, Initial residual = 8.43386e-05, Final residual = 3.74987e-07, No Iterations 3
time step continuity errors : sum local = 1.47149e-08, global = -7.83505e-19, cumulative = -1.09175e-17
smoothSolver:  Solving for epsilon, Initial residual = 1.82416e-05, Final residual = 3.83145e-06, No Iterations 1
smoothSolver:  Solving for k, Initial residual = 0.000175067, Final residual = 8.62923e-06, No Iterations 2
ExecutionTime = 0.14 s  ClockTime = 0 s

Time = 11.1

Courant Number mean: 0.544274 max: 1.07505
smoothSolver:  Solving for Ux, Initial residual = 0.000114542, Final residual = 5.32928e-06, No Iterations 2
smoothSolver:  Solving for Uy, Initial residual = 0.000105101, Final residual = 5.69844e-06, No Iterations 2
GAMG:  Solving for p, Initial residual = 0.000486797, Final residual = 1.39228e-05, No Iterations 2
time step continuity errors : sum local = 4.4287e-07, global = 3.30872e-18, cumulative = -7.60874e-18
GAMG:  Solving for p, Initial residual = 8.16186e-05, Final residual = 4.5415e-07, No Iterations 3
time step continuity errors : sum local = 1.68343e-08, global = 1.82244e-18, cumulative = -5.78629e-18
smoothSolver:  Solving for epsilon, Initial residual = 1.79217e-05, Final residual = 3.79296e-06, No Iterations 1
smoothSolver:  Solving for k, Initial residual = 0.000172789, Final residual = 8.51499e-06, No Iterations 2
ExecutionTime = 0.14 s  ClockTime = 0 s

Time = 11.12

Courant Number mean: 0.544282 max: 1.07505
smoothSolver:  Solving for Ux, Initial residual = 0.000113296, Final residual = 5.2494e-06, No Iterations 2
smoothSolver:  Solving for Uy, Initial residual = 0.000104683, Final residual = 5.75665e-06, No Iterations 2
GAMG:  Solving for p, Initial residual = 0.000483673, Final residual = 1.22748e-05, No Iterations 2
time step continuity errors : sum local = 3.98282e-07, global = -1.04026e-18, cumulative = -6.82656e-18
GAMG:  Solving for p, Initial residual = 8.21722e-05, Final residual = 3.81086e-07, No Iterations 3
time step continuity errors : sum local = 1.49043e-08, global = 2.74492e-18, cumulative = -4.08164e-18
smoothSolver:  Solving for epsilon, Initial residual = 1.765e-05, Final residual = 3.65477e-06, No Iterations 1
smoothSolver:  Solving for k, Initial residual = 0.000170951, Final residual = 8.46617e-06, No Iterations 2
ExecutionTime = 0.14 s  ClockTime = 0 s

Time = 11.14

Courant Number mean: 0.544292 max: 1.07504
smoothSolver:  Solving for Ux, Initial residual = 0.000111397, Final residual = 5.26478e-06, No Iterations 2
smoothSolver:  Solving for Uy, Initial residual = 0.000103725, Final residual = 5.64794e-06, No Iterations 2
GAMG:  Solving for p, Initial residual = 0.000476169, Final residual = 1.39837e-05, No Iterations 2
time step continuity errors : sum local = 4.42981e-07, global = -1.23074e-19, cumulative = -4.20471e-18
GAMG:  Solving for p, Initial residual = 8.04007e-05, Final residual = 4.61071e-07, No Iterations 3
time step continuity errors : sum local = 1.70714e-08, global = 9.23795e-19, cumulative = -3.28092e-18
smoothSolver:  Solving for epsilon, Initial residual = 1.73011e-05, Final residual = 3.62923e-06, No Iterations 1
smoothSolver:  Solving for k, Initial residual = 0.000168912, Final residual = 8.35011e-06, No Iterations 2
ExecutionTime = 0.14 s  ClockTime = 0 s

Time = 11.16

Courant Number mean: 0.544301 max: 1.07504
smoothSolver:  Solving for Ux, Initial residual = 0.000109951, Final residual = 5.19206e-06, No Iterations 2
smoothSolver:  Solving for Uy, Initial residual = 0.000103096, Final residual = 5.69407e-06, No Iterations 2
GAMG:  Solving for p, Initial residual = 0.000472257, Final residual = 1.21022e-05, No Iterations 2
time step continuity errors : sum local = 3.91745e-07, global = -1.031e-18, cumulative = -4.31192e-18
GAMG:  Solving for p, Initial residual = 8.04373e-05, Final residual = 3.87863e-07, No Iterations 3
time step continuity errors : sum local = 1.50935e-08, global = -6.02187e-19, cumulative = -4.9141e-18
smoothSolver:  Solving for epsilon, Initial residual = 1.70709e-05, Final residual = 3.5304e-06, No Iterations 1
smoothSolver:  Solving for k, Initial residual = 0.000167249, Final residual = 8.31221e-06, No Iterations 2
ExecutionTime = 0.15 s  ClockTime = 0 s

Time = 11.18

Courant Number mean: 0.544311 max: 1.07504
smoothSolver:  Solving for Ux, Initial residual = 0.00010782, Final residual = 5.20681e-06, No Iterations 2
smoothSolver:  Solving for Uy, Initial residual = 0.000102392, Final residual = 5.6141e-06, No Iterations 2
GAMG:  Solving for p, Initial residual = 0.000465384, Final residual = 1.40325e-05, No Iterations 2
time step continuity errors : sum local = 4.42253e-07, global = -8.06005e-19, cumulative = -5.72011e-18
GAMG:  Solving for p, Initial residual = 7.96458e-05, Final residual = 4.7191e-07, No Iterations 3
time step continuity errors : sum local = 1.73959e-08, global = 1.18452e-18, cumulative = -4.53559e-18
smoothSolver:  Solving for epsilon, Initial residual = 1.67195e-05, Final residual = 3.52175e-06, No Iterations 1
smoothSolver:  Solving for k, Initial residual = 0.000165173, Final residual = 8.18571e-06, No Iterations 2
ExecutionTime = 0.15 s  ClockTime = 0 s

Time = 11.2

Courant Number mean: 0.544322 max: 1.07503
smoothSolver:  Solving for Ux, Initial residual = 0.000106254, Final residual = 5.13919e-06, No Iterations 2
smoothSolver:  Solving for Uy, Initial residual = 0.000101794, Final residual = 5.63131e-06, No Iterations 2
GAMG:  Solving for p, Initial residual = 0.000462604, Final residual = 1.19205e-05, No Iterations 2
time step continuity errors : sum local = 3.84653e-07, global = -7.86152e-19, cumulative = -5.32174e-18
GAMG:  Solving for p, Initial residual = 7.9227e-05, Final residual = 3.959e-07, No Iterations 3
time step continuity errors : sum local = 1.53023e-08, global = -1.32481e-18, cumulative = -6.64655e-18
smoothSolver:  Solving for epsilon, Initial residual = 1.64808e-05, Final residual = 3.40137e-06, No Iterations 1
smoothSolver:  Solving for k, Initial residual = 0.000163726, Final residual = 8.14301e-06, No Iterations 2
ExecutionTime = 0.15 s  ClockTime = 0 s

Time = 11.22

Courant Number mean: 0.544333 max: 1.07503
smoothSolver:  Solving for Ux, Initial residual = 0.000103993, Final residual = 5.14805e-06, No Iterations 2
smoothSolver:  Solving for Uy, Initial residual = 0.000100908, Final residual = 5.56985e-06, No Iterations 2
GAMG:  Solving for p, Initial residual = 0.000456506, Final residual = 1.40929e-05, No Iterations 2
time step continuity errors : sum local = 4.41468e-07, global = 1.13952e-18, cumulative = -5.50703e-18
GAMG:  Solving for p, Initial residual = 7.89161e-05, Final residual = 4.85178e-07, No Iterations 3
time step continuity errors : sum local = 1.77665e-08, global = 3.48078e-19, cumulative = -5.15895e-18
smoothSolver:  Solving for epsilon, Initial residual = 1.61007e-05, Final residual = 3.38792e-06, No Iterations 1
smoothSolver:  Solving for k, Initial residual = 0.000162202, Final residual = 8.04119e-06, No Iterations 2
ExecutionTime = 0.15 s  ClockTime = 0 s

Time = 11.24

Courant Number mean: 0.544344 max: 1.07502
smoothSolver:  Solving for Ux, Initial residual = 0.000102554, Final residual = 5.08241e-06, No Iterations 2
smoothSolver:  Solving for Uy, Initial residual = 0.000100349, Final residual = 5.55989e-06, No Iterations 2
GAMG:  Solving for p, Initial residual = 0.00045405, Final residual = 1.17542e-05, No Iterations 2
time step continuity errors : sum local = 3.77022e-07, global = -5.51895e-19, cumulative = -5.71084e-18
GAMG:  Solving for p, Initial residual = 7.83376e-05, Final residual = 4.02691e-07, No Iterations 3
time step continuity errors : sum local = 1.54538e-08, global = 1.0032e-18, cumulative = -4.70764e-18
smoothSolver:  Solving for epsilon, Initial residual = 1.59333e-05, Final residual = 3.29981e-06, No Iterations 1
smoothSolver:  Solving for k, Initial residual = 0.000160823, Final residual = 7.96828e-06, No Iterations 2
ExecutionTime = 0.16 s  ClockTime = 0 s

Time = 11.26

Courant Number mean: 0.544355 max: 1.07502
smoothSolver:  Solving for Ux, Initial residual = 0.000100209, Final residual = 5.09277e-06, No Iterations 2
smoothSolver:  Solving for Uy, Initial residual = 9.96108e-05, Final residual = 5.50408e-06, No Iterations 2
GAMG:  Solving for p, Initial residual = 0.000448749, Final residual = 1.41196e-05, No Iterations 2
time step continuity errors : sum local = 4.39458e-07, global = 9.92617e-20, cumulative = -4.60838e-18
GAMG:  Solving for p, Initial residual = 7.82409e-05, Final residual = 4.98879e-07, No Iterations 3
time step continuity errors : sum local = 1.81298e-08, global = -1.20437e-19, cumulative = -4.72881e-18
smoothSolver:  Solving for epsilon, Initial residual = 1.56844e-05, Final residual = 3.28619e-06, No Iterations 1
smoothSolver:  Solving for k, Initial residual = 0.000159228, Final residual = 7.82465e-06, No Iterations 2
ExecutionTime = 0.16 s  ClockTime = 0 s

Time = 11.28

Courant Number mean: 0.544367 max: 1.07501
smoothSolver:  Solving for Ux, Initial residual = 9.84109e-05, Final residual = 5.02916e-06, No Iterations 2
smoothSolver:  Solving for Uy, Initial residual = 9.91291e-05, Final residual = 5.47431e-06, No Iterations 2
GAMG:  Solving for p, Initial residual = 0.000445565, Final residual = 1.15688e-05, No Iterations 2
time step continuity errors : sum local = 3.69265e-07, global = 2.73698e-18, cumulative = -1.99184e-18
GAMG:  Solving for p, Initial residual = 7.77286e-05, Final residual = 4.12662e-07, No Iterations 3
time step continuity errors : sum local = 1.56836e-08, global = -5.75718e-19, cumulative = -2.56756e-18
smoothSolver:  Solving for epsilon, Initial residual = 1.55864e-05, Final residual = 3.23398e-06, No Iterations 1
smoothSolver:  Solving for k, Initial residual = 0.000158022, Final residual = 7.71957e-06, No Iterations 2
ExecutionTime = 0.16 s  ClockTime = 0 s

Time = 11.3

Courant Number mean: 0.544379 max: 1.075
smoothSolver:  Solving for Ux, Initial residual = 9.58407e-05, Final residual = 5.03521e-06, No Iterations 2
smoothSolver:  Solving for Uy, Initial residual = 9.84743e-05, Final residual = 5.42638e-06, No Iterations 2
GAMG:  Solving for p, Initial residual = 0.000441828, Final residual = 1.4102e-05, No Iterations 2
time step continuity errors : sum local = 4.35995e-07, global = -2.75286e-19, cumulative = -2.84284e-18
GAMG:  Solving for p, Initial residual = 7.76898e-05, Final residual = 5.12399e-07, No Iterations 3
time step continuity errors : sum local = 1.84654e-08, global = 3.03079e-19, cumulative = -2.53976e-18
smoothSolver:  Solving for epsilon, Initial residual = 1.53472e-05, Final residual = 3.18051e-06, No Iterations 1
smoothSolver:  Solving for k, Initial residual = 0.000156593, Final residual = 7.54368e-06, No Iterations 2
ExecutionTime = 0.16 s  ClockTime = 0 s

Time = 11.32

Courant Number mean: 0.544391 max: 1.07499
smoothSolver:  Solving for Ux, Initial residual = 9.37594e-05, Final residual = 4.9771e-06, No Iterations 2
smoothSolver:  Solving for Uy, Initial residual = 9.80823e-05, Final residual = 5.38079e-06, No Iterations 2
GAMG:  Solving for p, Initial residual = 0.000437674, Final residual = 1.13739e-05, No Iterations 2
time step continuity errors : sum local = 3.61001e-07, global = 3.58004e-18, cumulative = 1.04027e-18
GAMG:  Solving for p, Initial residual = 7.72626e-05, Final residual = 4.23953e-07, No Iterations 3
time step continuity errors : sum local = 1.59283e-08, global = -1.89656e-18, cumulative = -8.56286e-19
smoothSolver:  Solving for epsilon, Initial residual = 1.52783e-05, Final residual = 3.13916e-06, No Iterations 1
smoothSolver:  Solving for k, Initial residual = 0.00015549, Final residual = 7.41939e-06, No Iterations 2
ExecutionTime = 0.17 s  ClockTime = 0 s

Time = 11.34

Courant Number mean: 0.544403 max: 1.07498
smoothSolver:  Solving for Ux, Initial residual = 9.11367e-05, Final residual = 4.98485e-06, No Iterations 2
smoothSolver:  Solving for Uy, Initial residual = 9.76117e-05, Final residual = 5.35583e-06, No Iterations 2
GAMG:  Solving for p, Initial residual = 0.000435298, Final residual = 1.40256e-05, No Iterations 2
time step continuity errors : sum local = 4.30668e-07, global = -1.32746e-18, cumulative = -2.18375e-18
GAMG:  Solving for p, Initial residual = 7.71044e-05, Final residual = 5.2468e-07, No Iterations 3
time step continuity errors : sum local = 1.87409e-08, global = 2.04214e-18, cumulative = -1.41602e-19
smoothSolver:  Solving for epsilon, Initial residual = 1.50221e-05, Final residual = 3.10762e-06, No Iterations 1
smoothSolver:  Solving for k, Initial residual = 0.000154152, Final residual = 7.23654e-06, No Iterations 2
ExecutionTime = 0.17 s  ClockTime = 0 s

Time = 11.36

Courant Number mean: 0.544416 max: 1.07497
smoothSolver:  Solving for Ux, Initial residual = 8.90488e-05, Final residual = 4.92925e-06, No Iterations 2
smoothSolver:  Solving for Uy, Initial residual = 9.70651e-05, Final residual = 5.28835e-06, No Iterations 2
GAMG:  Solving for p, Initial residual = 0.000430141, Final residual = 1.11679e-05, No Iterations 2
time step continuity errors : sum local = 3.52189e-07, global = 4.76456e-20, cumulative = -9.39564e-20
GAMG:  Solving for p, Initial residual = 7.68287e-05, Final residual = 4.35893e-07, No Iterations 3
time step continuity errors : sum local = 1.61663e-08, global = -2.87197e-19, cumulative = -3.81154e-19
smoothSolver:  Solving for epsilon, Initial residual = 1.49754e-05, Final residual = 3.0517e-06, No Iterations 1
smoothSolver:  Solving for k, Initial residual = 0.00015298, Final residual = 7.09789e-06, No Iterations 2
ExecutionTime = 0.17 s  ClockTime = 0 s

Time = 11.38

Courant Number mean: 0.544429 max: 1.07495
smoothSolver:  Solving for Ux, Initial residual = 8.65327e-05, Final residual = 4.93442e-06, No Iterations 2
smoothSolver:  Solving for Uy, Initial residual = 9.67291e-05, Final residual = 5.26784e-06, No Iterations 2
GAMG:  Solving for p, Initial residual = 0.000429018, Final residual = 1.38976e-05, No Iterations 2
time step continuity errors : sum local = 4.23755e-07, global = -1.59348e-18, cumulative = -1.97463e-18
GAMG:  Solving for p, Initial residual = 7.63886e-05, Final residual = 5.34103e-07, No Iterations 3
time step continuity errors : sum local = 1.89094e-08, global = 2.43787e-18, cumulative = 4.63232e-19
smoothSolver:  Solving for epsilon, Initial residual = 1.47585e-05, Final residual = 3.02443e-06, No Iterations 1
smoothSolver:  Solving for k, Initial residual = 0.000151687, Final residual = 6.93333e-06, No Iterations 2
ExecutionTime = 0.17 s  ClockTime = 0 s

Time = 11.4

Courant Number mean: 0.544441 max: 1.07494
smoothSolver:  Solving for Ux, Initial residual = 8.46049e-05, Final residual = 4.88594e-06, No Iterations 2
smoothSolver:  Solving for Uy, Initial residual = 9.60175e-05, Final residual = 5.19789e-06, No Iterations 2
GAMG:  Solving for p, Initial residual = 0.000423555, Final residual = 1.09656e-05, No Iterations 2
time step continuity errors : sum local = 3.43219e-07, global = -1.38569e-18, cumulative = -9.22461e-19
GAMG:  Solving for p, Initial residual = 7.62888e-05, Final residual = 4.47912e-07, No Iterations 3
time step continuity errors : sum local = 1.63766e-08, global = -8.86738e-20, cumulative = -1.01113e-18
smoothSolver:  Solving for epsilon, Initial residual = 1.4737e-05, Final residual = 2.96729e-06, No Iterations 1
smoothSolver:  Solving for k, Initial residual = 0.000150333, Final residual = 6.72122e-06, No Iterations 2
ExecutionTime = 0.17 s  ClockTime = 0 s

Time = 11.42

Courant Number mean: 0.544454 max: 1.07492
smoothSolver:  Solving for Ux, Initial residual = 8.21899e-05, Final residual = 4.88689e-06, No Iterations 2
smoothSolver:  Solving for Uy, Initial residual = 9.56918e-05, Final residual = 5.18182e-06, No Iterations 2
GAMG:  Solving for p, Initial residual = 0.00042277, Final residual = 1.37272e-05, No Iterations 2
time step continuity errors : sum local = 4.15541e-07, global = -1.15276e-18, cumulative = -2.16389e-18
GAMG:  Solving for p, Initial residual = 7.55851e-05, Final residual = 5.40435e-07, No Iterations 3
time step continuity errors : sum local = 1.8964e-08, global = 1.74303e-18, cumulative = -4.20858e-19
smoothSolver:  Solving for epsilon, Initial residual = 1.45567e-05, Final residual = 2.93942e-06, No Iterations 1
smoothSolver:  Solving for k, Initial residual = 0.000149236, Final residual = 6.57017e-06, No Iterations 2
ExecutionTime = 0.18 s  ClockTime = 0 s

Time = 11.44

Courant Number mean: 0.544467 max: 1.0749
smoothSolver:  Solving for Ux, Initial residual = 8.02004e-05, Final residual = 4.84143e-06, No Iterations 2
smoothSolver:  Solving for Uy, Initial residual = 9.47581e-05, Final residual = 5.11909e-06, No Iterations 2
GAMG:  Solving for p, Initial residual = 0.000416531, Final residual = 1.07872e-05, No Iterations 2
time step continuity errors : sum local = 3.34744e-07, global = 1.77877e-18, cumulative = 1.35791e-18
GAMG:  Solving for p, Initial residual = 7.55973e-05, Final residual = 4.60209e-07, No Iterations 3
time step continuity errors : sum local = 1.65639e-08, global = -1.03232e-19, cumulative = 1.25468e-18
smoothSolver:  Solving for epsilon, Initial residual = 1.44701e-05, Final residual = 2.88359e-06, No Iterations 1
smoothSolver:  Solving for k, Initial residual = 0.000148158, Final residual = 6.39209e-06, No Iterations 2
ExecutionTime = 0.18 s  ClockTime = 0 s

Time = 11.46

Courant Number mean: 0.54448 max: 1.07488
smoothSolver:  Solving for Ux, Initial residual = 7.79625e-05, Final residual = 4.84042e-06, No Iterations 2
smoothSolver:  Solving for Uy, Initial residual = 9.45269e-05, Final residual = 5.12479e-06, No Iterations 2
GAMG:  Solving for p, Initial residual = 0.000416523, Final residual = 1.4596e-05, No Iterations 2
time step continuity errors : sum local = 4.58079e-07, global = 1.01248e-18, cumulative = 2.26716e-18
GAMG:  Solving for p, Initial residual = 7.49543e-05, Final residual = 5.57213e-07, No Iterations 3
time step continuity errors : sum local = 2.00868e-08, global = 2.91168e-18, cumulative = 5.17883e-18
smoothSolver:  Solving for epsilon, Initial residual = 1.43534e-05, Final residual = 2.85779e-06, No Iterations 1
smoothSolver:  Solving for k, Initial residual = 0.000147055, Final residual = 6.24201e-06, No Iterations 2
ExecutionTime = 0.18 s  ClockTime = 0 s

Time = 11.48

Courant Number mean: 0.544494 max: 1.07485
smoothSolver:  Solving for Ux, Initial residual = 7.59922e-05, Final residual = 4.79745e-06, No Iterations 2
smoothSolver:  Solving for Uy, Initial residual = 9.34808e-05, Final residual = 5.06597e-06, No Iterations 2
GAMG:  Solving for p, Initial residual = 0.000410684, Final residual = 1.06176e-05, No Iterations 2
time step continuity errors : sum local = 3.27107e-07, global = 1.44393e-18, cumulative = 6.62276e-18
GAMG:  Solving for p, Initial residual = 7.49514e-05, Final residual = 4.78896e-07, No Iterations 3
time step continuity errors : sum local = 1.69127e-08, global = 4.69839e-19, cumulative = 7.0926e-18
smoothSolver:  Solving for epsilon, Initial residual = 1.4241e-05, Final residual = 2.81824e-06, No Iterations 1
smoothSolver:  Solving for k, Initial residual = 0.000146162, Final residual = 6.07312e-06, No Iterations 2
ExecutionTime = 0.18 s  ClockTime = 0 s

Time = 11.5

Courant Number mean: 0.544507 max: 1.07483
smoothSolver:  Solving for Ux, Initial residual = 7.3827e-05, Final residual = 4.79378e-06, No Iterations 2
smoothSolver:  Solving for Uy, Initial residual = 9.31965e-05, Final residual = 5.08832e-06, No Iterations 2
GAMG:  Solving for p, Initial residual = 0.000411679, Final residual = 1.43215e-05, No Iterations 2
time step continuity errors : sum local = 4.43793e-07, global = 9.79382e-20, cumulative = 7.19054e-18
GAMG:  Solving for p, Initial residual = 7.42444e-05, Final residual = 5.52788e-07, No Iterations 3
time step continuity errors : sum local = 1.97321e-08, global = -6.36598e-19, cumulative = 6.55394e-18
smoothSolver:  Solving for epsilon, Initial residual = 1.41348e-05, Final residual = 2.78664e-06, No Iterations 1
smoothSolver:  Solving for k, Initial residual = 0.00014514, Final residual = 5.97466e-06, No Iterations 2
ExecutionTime = 0.18 s  ClockTime = 0 s

Time = 11.52

Courant Number mean: 0.54452 max: 1.0748
smoothSolver:  Solving for Ux, Initial residual = 7.19983e-05, Final residual = 4.75107e-06, No Iterations 2
smoothSolver:  Solving for Uy, Initial residual = 9.208e-05, Final residual = 5.02903e-06, No Iterations 2
GAMG:  Solving for p, Initial residual = 0.000406, Final residual = 1.05349e-05, No Iterations 2
time step continuity errors : sum local = 3.2081e-07, global = -8.39092e-19, cumulative = 5.71485e-18
GAMG:  Solving for p, Initial residual = 7.44105e-05, Final residual = 4.94115e-07, No Iterations 3
time step continuity errors : sum local = 1.71184e-08, global = -8.37769e-19, cumulative = 4.87708e-18
smoothSolver:  Solving for epsilon, Initial residual = 1.40138e-05, Final residual = 2.75817e-06, No Iterations 1
smoothSolver:  Solving for k, Initial residual = 0.000143959, Final residual = 5.82673e-06, No Iterations 2
ExecutionTime = 0.19 s  ClockTime = 0 s

Time = 11.54

Courant Number mean: 0.544534 max: 1.07478
smoothSolver:  Solving for Ux, Initial residual = 7.0173e-05, Final residual = 4.74757e-06, No Iterations 2
smoothSolver:  Solving for Uy, Initial residual = 9.17525e-05, Final residual = 5.06462e-06, No Iterations 2
GAMG:  Solving for p, Initial residual = 0.00040749, Final residual = 1.40928e-05, No Iterations 2
time step continuity errors : sum local = 4.31477e-07, global = 1.60672e-18, cumulative = 6.48379e-18
GAMG:  Solving for p, Initial residual = 7.34988e-05, Final residual = 5.4599e-07, No Iterations 3
time step continuity errors : sum local = 1.9314e-08, global = 1.53525e-18, cumulative = 8.01904e-18
smoothSolver:  Solving for epsilon, Initial residual = 1.39104e-05, Final residual = 2.71787e-06, No Iterations 1
smoothSolver:  Solving for k, Initial residual = 0.000142856, Final residual = 5.69467e-06, No Iterations 2
ExecutionTime = 0.19 s  ClockTime = 0 s

Time = 11.56

Courant Number mean: 0.544547 max: 1.07475
smoothSolver:  Solving for Ux, Initial residual = 6.88548e-05, Final residual = 4.71477e-06, No Iterations 2
smoothSolver:  Solving for Uy, Initial residual = 9.05274e-05, Final residual = 5.00288e-06, No Iterations 2
GAMG:  Solving for p, Initial residual = 0.000402455, Final residual = 1.11691e-05, No Iterations 2
time step continuity errors : sum local = 3.49937e-07, global = 1.77678e-18, cumulative = 9.79583e-18
GAMG:  Solving for p, Initial residual = 7.38178e-05, Final residual = 5.61383e-07, No Iterations 3
time step continuity errors : sum local = 1.93341e-08, global = 9.33721e-19, cumulative = 1.07295e-17
smoothSolver:  Solving for epsilon, Initial residual = 1.37906e-05, Final residual = 2.69322e-06, No Iterations 1
smoothSolver:  Solving for k, Initial residual = 0.000141713, Final residual = 5.58169e-06, No Iterations 2
ExecutionTime = 0.19 s  ClockTime = 0 s

Time = 11.58

Courant Number mean: 0.544561 max: 1.07472
smoothSolver:  Solving for Ux, Initial residual = 6.74181e-05, Final residual = 4.71839e-06, No Iterations 2
smoothSolver:  Solving for Uy, Initial residual = 9.00922e-05, Final residual = 5.0446e-06, No Iterations 2
GAMG:  Solving for p, Initial residual = 0.000403793, Final residual = 1.39128e-05, No Iterations 2
time step continuity errors : sum local = 4.21132e-07, global = -7.29904e-19, cumulative = 9.99964e-18
GAMG:  Solving for p, Initial residual = 7.31349e-05, Final residual = 5.37892e-07, No Iterations 3
time step continuity errors : sum local = 1.88633e-08, global = -2.36243e-19, cumulative = 9.7634e-18
smoothSolver:  Solving for epsilon, Initial residual = 1.36653e-05, Final residual = 2.64952e-06, No Iterations 1
smoothSolver:  Solving for k, Initial residual = 0.000140699, Final residual = 5.51825e-06, No Iterations 2
ExecutionTime = 0.19 s  ClockTime = 0 s

Time = 11.6

Courant Number mean: 0.544574 max: 1.07469
smoothSolver:  Solving for Ux, Initial residual = 6.65937e-05, Final residual = 4.70707e-06, No Iterations 2
smoothSolver:  Solving for Uy, Initial residual = 8.87568e-05, Final residual = 4.97587e-06, No Iterations 2
GAMG:  Solving for p, Initial residual = 0.000400633, Final residual = 1.11297e-05, No Iterations 2
time step continuity errors : sum local = 3.4247e-07, global = -2.44184e-19, cumulative = 9.51922e-18
GAMG:  Solving for p, Initial residual = 7.40256e-05, Final residual = 5.71349e-07, No Iterations 3
time step continuity errors : sum local = 1.93052e-08, global = 2.24331e-19, cumulative = 9.74355e-18
smoothSolver:  Solving for epsilon, Initial residual = 1.35695e-05, Final residual = 2.64394e-06, No Iterations 1
smoothSolver:  Solving for k, Initial residual = 0.000139385, Final residual = 5.43249e-06, No Iterations 2
ExecutionTime = 0.2 s  ClockTime = 0 s

Time = 11.62

Courant Number mean: 0.544588 max: 1.07466
smoothSolver:  Solving for Ux, Initial residual = 6.60336e-05, Final residual = 4.72864e-06, No Iterations 2
smoothSolver:  Solving for Uy, Initial residual = 8.80722e-05, Final residual = 5.01253e-06, No Iterations 2
GAMG:  Solving for p, Initial residual = 0.000404267, Final residual = 1.37877e-05, No Iterations 2
time step continuity errors : sum local = 4.11628e-07, global = -2.85212e-19, cumulative = 9.45834e-18
GAMG:  Solving for p, Initial residual = 7.39209e-05, Final residual = 5.27473e-07, No Iterations 3
time step continuity errors : sum local = 1.83001e-08, global = 2.8455e-20, cumulative = 9.48679e-18
smoothSolver:  Solving for epsilon, Initial residual = 1.34519e-05, Final residual = 2.5962e-06, No Iterations 1
smoothSolver:  Solving for k, Initial residual = 0.000138398, Final residual = 5.35782e-06, No Iterations 2
ExecutionTime = 0.2 s  ClockTime = 0 s

Time = 11.64

Courant Number mean: 0.544602 max: 1.07462
smoothSolver:  Solving for Ux, Initial residual = 6.58349e-05, Final residual = 4.74099e-06, No Iterations 2
smoothSolver:  Solving for Uy, Initial residual = 8.66605e-05, Final residual = 4.93234e-06, No Iterations 2
GAMG:  Solving for p, Initial residual = 0.00040045, Final residual = 1.11856e-05, No Iterations 2
time step continuity errors : sum local = 3.38065e-07, global = 7.21963e-19, cumulative = 1.02088e-17
GAMG:  Solving for p, Initial residual = 7.46403e-05, Final residual = 5.85683e-07, No Iterations 3
time step continuity errors : sum local = 1.93957e-08, global = 9.61515e-19, cumulative = 1.11703e-17
smoothSolver:  Solving for epsilon, Initial residual = 1.33743e-05, Final residual = 2.60126e-06, No Iterations 1
smoothSolver:  Solving for k, Initial residual = 0.000137251, Final residual = 5.30002e-06, No Iterations 2
ExecutionTime = 0.2 s  ClockTime = 0 s

Time = 11.66

Courant Number mean: 0.544616 max: 1.07459
smoothSolver:  Solving for Ux, Initial residual = 6.57876e-05, Final residual = 4.76931e-06, No Iterations 2
smoothSolver:  Solving for Uy, Initial residual = 8.57177e-05, Final residual = 4.96414e-06, No Iterations 2
GAMG:  Solving for p, Initial residual = 0.000401786, Final residual = 1.37387e-05, No Iterations 2
time step continuity errors : sum local = 4.04673e-07, global = 7.64315e-19, cumulative = 1.19346e-17
GAMG:  Solving for p, Initial residual = 7.40877e-05, Final residual = 5.19122e-07, No Iterations 3
time step continuity errors : sum local = 1.77937e-08, global = 2.05869e-18, cumulative = 1.39933e-17
smoothSolver:  Solving for epsilon, Initial residual = 1.32483e-05, Final residual = 2.56762e-06, No Iterations 1
smoothSolver:  Solving for k, Initial residual = 0.00013628, Final residual = 5.23755e-06, No Iterations 2
ExecutionTime = 0.2 s  ClockTime = 0 s

Time = 11.68

Courant Number mean: 0.54463 max: 1.07455
smoothSolver:  Solving for Ux, Initial residual = 6.59369e-05, Final residual = 4.80008e-06, No Iterations 2
smoothSolver:  Solving for Uy, Initial residual = 8.41423e-05, Final residual = 4.87489e-06, No Iterations 2
[...]
smoothSolver:  Solving for k, Initial residual = 7.34764e-05, Final residual = 3.2139e-06, No Iterations 2
ExecutionTime = 1.06 s  ClockTime = 1 s

Time = 19.6

Courant Number mean: 0.546482 max: 1.07191
smoothSolver:  Solving for Ux, Initial residual = 1.92604e-05, Final residual = 4.69835e-06, No Iterations 1
smoothSolver:  Solving for Uy, Initial residual = 1.47921e-05, Final residual = 3.68452e-06, No Iterations 1
GAMG:  Solving for p, Initial residual = 0.000278871, Final residual = 2.68681e-05, No Iterations 1
time step continuity errors : sum local = 7.01013e-07, global = 1.17791e-19, cumulative = -2.22994e-17
GAMG:  Solving for p, Initial residual = 7.33481e-05, Final residual = 7.86113e-07, No Iterations 3
time step continuity errors : sum local = 2.16146e-08, global = -7.27919e-20, cumulative = -2.23722e-17
smoothSolver:  Solving for epsilon, Initial residual = 9.57414e-06, Final residual = 9.57414e-06, No Iterations 0
smoothSolver:  Solving for k, Initial residual = 7.3827e-05, Final residual = 3.11991e-06, No Iterations 2
ExecutionTime = 1.07 s  ClockTime = 1 s

Time = 19.62

Courant Number mean: 0.546481 max: 1.07191
smoothSolver:  Solving for Ux, Initial residual = 1.94799e-05, Final residual = 4.70489e-06, No Iterations 1
smoothSolver:  Solving for Uy, Initial residual = 1.4637e-05, Final residual = 3.62997e-06, No Iterations 1
GAMG:  Solving for p, Initial residual = 0.000281492, Final residual = 5.74133e-06, No Iterations 2
time step continuity errors : sum local = 1.49716e-07, global = 1.10048e-18, cumulative = -2.12718e-17
GAMG:  Solving for p, Initial residual = 6.57101e-05, Final residual = 2.80806e-07, No Iterations 3
time step continuity errors : sum local = 7.80807e-09, global = 4.10282e-19, cumulative = -2.08615e-17
smoothSolver:  Solving for epsilon, Initial residual = 1.02901e-05, Final residual = 2.2858e-06, No Iterations 1
smoothSolver:  Solving for k, Initial residual = 7.35095e-05, Final residual = 3.05515e-06, No Iterations 2
ExecutionTime = 1.07 s  ClockTime = 1 s

Time = 19.64

Courant Number mean: 0.54648 max: 1.07191
smoothSolver:  Solving for Ux, Initial residual = 1.93963e-05, Final residual = 4.65699e-06, No Iterations 1
smoothSolver:  Solving for Uy, Initial residual = 1.46967e-05, Final residual = 3.67006e-06, No Iterations 1
GAMG:  Solving for p, Initial residual = 0.000280393, Final residual = 2.71377e-05, No Iterations 1
time step continuity errors : sum local = 7.07595e-07, global = -9.7475e-19, cumulative = -2.18362e-17
GAMG:  Solving for p, Initial residual = 7.35054e-05, Final residual = 7.89116e-07, No Iterations 3
time step continuity errors : sum local = 2.15703e-08, global = 8.90046e-19, cumulative = -2.09462e-17
smoothSolver:  Solving for epsilon, Initial residual = 9.61701e-06, Final residual = 9.61701e-06, No Iterations 0
smoothSolver:  Solving for k, Initial residual = 7.38086e-05, Final residual = 2.94525e-06, No Iterations 2
ExecutionTime = 1.07 s  ClockTime = 1 s

Time = 19.66

Courant Number mean: 0.546478 max: 1.07191
smoothSolver:  Solving for Ux, Initial residual = 1.95357e-05, Final residual = 4.65588e-06, No Iterations 1
smoothSolver:  Solving for Uy, Initial residual = 1.45493e-05, Final residual = 3.6285e-06, No Iterations 1
GAMG:  Solving for p, Initial residual = 0.000282328, Final residual = 5.84698e-06, No Iterations 2
time step continuity errors : sum local = 1.52201e-07, global = 1.34665e-18, cumulative = -1.95995e-17
GAMG:  Solving for p, Initial residual = 6.59168e-05, Final residual = 2.85379e-07, No Iterations 3
time step continuity errors : sum local = 7.84414e-09, global = 1.24408e-18, cumulative = -1.83554e-17
smoothSolver:  Solving for epsilon, Initial residual = 1.02263e-05, Final residual = 2.22696e-06, No Iterations 1
smoothSolver:  Solving for k, Initial residual = 7.34547e-05, Final residual = 2.87775e-06, No Iterations 2
ExecutionTime = 1.07 s  ClockTime = 1 s

Time = 19.68

Courant Number mean: 0.546477 max: 1.07191
smoothSolver:  Solving for Ux, Initial residual = 1.94709e-05, Final residual = 4.59407e-06, No Iterations 1
smoothSolver:  Solving for Uy, Initial residual = 1.46097e-05, Final residual = 3.6786e-06, No Iterations 1
GAMG:  Solving for p, Initial residual = 0.000280909, Final residual = 2.71029e-05, No Iterations 1
time step continuity errors : sum local = 7.06796e-07, global = 1.04225e-18, cumulative = -1.73132e-17
GAMG:  Solving for p, Initial residual = 7.36684e-05, Final residual = 7.67851e-07, No Iterations 3
time step continuity errors : sum local = 2.1006e-08, global = -1.62921e-18, cumulative = -1.89424e-17
smoothSolver:  Solving for epsilon, Initial residual = 9.4658e-06, Final residual = 9.4658e-06, No Iterations 0
smoothSolver:  Solving for k, Initial residual = 7.38344e-05, Final residual = 2.81084e-06, No Iterations 2
ExecutionTime = 1.07 s  ClockTime = 1 s

Time = 19.7

Courant Number mean: 0.546476 max: 1.07191
smoothSolver:  Solving for Ux, Initial residual = 1.94737e-05, Final residual = 4.59348e-06, No Iterations 1
smoothSolver:  Solving for Uy, Initial residual = 1.44646e-05, Final residual = 3.64585e-06, No Iterations 1
GAMG:  Solving for p, Initial residual = 0.000282599, Final residual = 5.90296e-06, No Iterations 2
time step continuity errors : sum local = 1.53497e-07, global = 1.94751e-18, cumulative = -1.69949e-17
GAMG:  Solving for p, Initial residual = 6.60697e-05, Final residual = 2.88257e-07, No Iterations 3
time step continuity errors : sum local = 7.86105e-09, global = 1.88134e-18, cumulative = -1.51136e-17
smoothSolver:  Solving for epsilon, Initial residual = 1.01137e-05, Final residual = 2.15686e-06, No Iterations 1
smoothSolver:  Solving for k, Initial residual = 7.35394e-05, Final residual = 2.80083e-06, No Iterations 2
ExecutionTime = 1.08 s  ClockTime = 1 s

Time = 19.72

Courant Number mean: 0.546475 max: 1.0719
smoothSolver:  Solving for Ux, Initial residual = 1.94463e-05, Final residual = 4.52313e-06, No Iterations 1
smoothSolver:  Solving for Uy, Initial residual = 1.45474e-05, Final residual = 3.71142e-06, No Iterations 1
GAMG:  Solving for p, Initial residual = 0.000282359, Final residual = 2.70547e-05, No Iterations 1
time step continuity errors : sum local = 7.05446e-07, global = 3.15652e-19, cumulative = -1.47979e-17
GAMG:  Solving for p, Initial residual = 7.37665e-05, Final residual = 7.50281e-07, No Iterations 3
time step continuity errors : sum local = 2.05358e-08, global = 2.49941e-18, cumulative = -1.22985e-17
smoothSolver:  Solving for epsilon, Initial residual = 9.49491e-06, Final residual = 9.49491e-06, No Iterations 0
smoothSolver:  Solving for k, Initial residual = 7.37551e-05, Final residual = 2.73627e-06, No Iterations 2
ExecutionTime = 1.08 s  ClockTime = 1 s

Time = 19.74

Courant Number mean: 0.546474 max: 1.0719
smoothSolver:  Solving for Ux, Initial residual = 1.93926e-05, Final residual = 4.53778e-06, No Iterations 1
smoothSolver:  Solving for Uy, Initial residual = 1.44481e-05, Final residual = 3.69917e-06, No Iterations 1
GAMG:  Solving for p, Initial residual = 0.000283303, Final residual = 5.92704e-06, No Iterations 2
time step continuity errors : sum local = 1.53951e-07, global = 1.56833e-19, cumulative = -1.21417e-17
GAMG:  Solving for p, Initial residual = 6.63305e-05, Final residual = 2.91552e-07, No Iterations 3
time step continuity errors : sum local = 7.87873e-09, global = -1.72054e-20, cumulative = -1.21589e-17
smoothSolver:  Solving for epsilon, Initial residual = 1.00926e-05, Final residual = 2.12396e-06, No Iterations 1
smoothSolver:  Solving for k, Initial residual = 7.35248e-05, Final residual = 2.73957e-06, No Iterations 2
ExecutionTime = 1.08 s  ClockTime = 1 s

Time = 19.76

Courant Number mean: 0.546473 max: 1.0719
smoothSolver:  Solving for Ux, Initial residual = 1.93728e-05, Final residual = 4.4567e-06, No Iterations 1
smoothSolver:  Solving for Uy, Initial residual = 1.46022e-05, Final residual = 3.78453e-06, No Iterations 1
GAMG:  Solving for p, Initial residual = 0.000282536, Final residual = 2.69539e-05, No Iterations 1
time step continuity errors : sum local = 7.02771e-07, global = 6.24687e-19, cumulative = -1.15342e-17
GAMG:  Solving for p, Initial residual = 7.38157e-05, Final residual = 7.33246e-07, No Iterations 3
time step continuity errors : sum local = 2.0018e-08, global = -1.16202e-18, cumulative = -1.26962e-17
smoothSolver:  Solving for epsilon, Initial residual = 9.42722e-06, Final residual = 9.42722e-06, No Iterations 0
smoothSolver:  Solving for k, Initial residual = 7.38207e-05, Final residual = 2.71295e-06, No Iterations 2
ExecutionTime = 1.08 s  ClockTime = 1 s

Time = 19.78

Courant Number mean: 0.546472 max: 1.0719
smoothSolver:  Solving for Ux, Initial residual = 1.94363e-05, Final residual = 4.49174e-06, No Iterations 1
smoothSolver:  Solving for Uy, Initial residual = 1.45371e-05, Final residual = 3.77009e-06, No Iterations 1
GAMG:  Solving for p, Initial residual = 0.000283077, Final residual = 5.92427e-06, No Iterations 2
time step continuity errors : sum local = 1.53678e-07, global = 1.88796e-18, cumulative = -1.08082e-17
GAMG:  Solving for p, Initial residual = 6.6617e-05, Final residual = 2.95641e-07, No Iterations 3
time step continuity errors : sum local = 7.89553e-09, global = 1.26062e-18, cumulative = -9.54763e-18
smoothSolver:  Solving for epsilon, Initial residual = 1.00652e-05, Final residual = 2.0678e-06, No Iterations 1
smoothSolver:  Solving for k, Initial residual = 7.35139e-05, Final residual = 2.76669e-06, No Iterations 2
ExecutionTime = 1.08 s  ClockTime = 1 s

Time = 19.8

Courant Number mean: 0.54647 max: 1.0719
smoothSolver:  Solving for Ux, Initial residual = 1.93932e-05, Final residual = 4.41562e-06, No Iterations 1
smoothSolver:  Solving for Uy, Initial residual = 1.47216e-05, Final residual = 3.8604e-06, No Iterations 1
GAMG:  Solving for p, Initial residual = 0.000283256, Final residual = 2.6812e-05, No Iterations 1
time step continuity errors : sum local = 6.98913e-07, global = -2.95403e-18, cumulative = -1.25017e-17
GAMG:  Solving for p, Initial residual = 7.38252e-05, Final residual = 7.13754e-07, No Iterations 3
time step continuity errors : sum local = 1.94746e-08, global = -1.8145e-18, cumulative = -1.43162e-17
smoothSolver:  Solving for epsilon, Initial residual = 9.46744e-06, Final residual = 9.46744e-06, No Iterations 0
smoothSolver:  Solving for k, Initial residual = 7.37556e-05, Final residual = 2.7274e-06, No Iterations 2
ExecutionTime = 1.09 s  ClockTime = 1 s

Time = 19.82

Courant Number mean: 0.546469 max: 1.0719
smoothSolver:  Solving for Ux, Initial residual = 1.94472e-05, Final residual = 4.46764e-06, No Iterations 1
smoothSolver:  Solving for Uy, Initial residual = 1.46638e-05, Final residual = 3.85617e-06, No Iterations 1
GAMG:  Solving for p, Initial residual = 0.000283195, Final residual = 2.82114e-05, No Iterations 1
time step continuity errors : sum local = 7.32257e-07, global = -4.08296e-19, cumulative = -1.47245e-17
GAMG:  Solving for p, Initial residual = 7.59898e-05, Final residual = 6.51012e-07, No Iterations 3
time step continuity errors : sum local = 1.71881e-08, global = 5.84982e-19, cumulative = -1.41395e-17
smoothSolver:  Solving for epsilon, Initial residual = 1.01278e-05, Final residual = 2.05731e-06, No Iterations 1
smoothSolver:  Solving for k, Initial residual = 7.3381e-05, Final residual = 2.79469e-06, No Iterations 2
ExecutionTime = 1.09 s  ClockTime = 1 s

Time = 19.84

Courant Number mean: 0.546468 max: 1.0719
smoothSolver:  Solving for Ux, Initial residual = 1.93666e-05, Final residual = 4.38691e-06, No Iterations 1
smoothSolver:  Solving for Uy, Initial residual = 1.48633e-05, Final residual = 3.94019e-06, No Iterations 1
GAMG:  Solving for p, Initial residual = 0.000283792, Final residual = 2.65142e-05, No Iterations 1
time step continuity errors : sum local = 6.91369e-07, global = 6.02187e-20, cumulative = -1.40793e-17
GAMG:  Solving for p, Initial residual = 7.37729e-05, Final residual = 6.79465e-07, No Iterations 3
time step continuity errors : sum local = 1.8676e-08, global = 1.53657e-18, cumulative = -1.25427e-17
smoothSolver:  Solving for epsilon, Initial residual = 9.50455e-06, Final residual = 9.50455e-06, No Iterations 0
smoothSolver:  Solving for k, Initial residual = 7.3765e-05, Final residual = 2.83312e-06, No Iterations 2
ExecutionTime = 1.09 s  ClockTime = 1 s

Time = 19.86

Courant Number mean: 0.546467 max: 1.07189
smoothSolver:  Solving for Ux, Initial residual = 1.93875e-05, Final residual = 4.44983e-06, No Iterations 1
smoothSolver:  Solving for Uy, Initial residual = 1.48476e-05, Final residual = 3.92402e-06, No Iterations 1
GAMG:  Solving for p, Initial residual = 0.000282814, Final residual = 2.78775e-05, No Iterations 1
time step continuity errors : sum local = 7.23664e-07, global = 8.62253e-19, cumulative = -1.16804e-17
GAMG:  Solving for p, Initial residual = 7.59177e-05, Final residual = 6.51926e-07, No Iterations 3
time step continuity errors : sum local = 1.71297e-08, global = 1.63848e-18, cumulative = -1.00419e-17
smoothSolver:  Solving for epsilon, Initial residual = 1.01574e-05, Final residual = 2.02941e-06, No Iterations 1
smoothSolver:  Solving for k, Initial residual = 7.36456e-05, Final residual = 2.96095e-06, No Iterations 2
ExecutionTime = 1.09 s  ClockTime = 1 s

Time = 19.88

Courant Number mean: 0.546466 max: 1.07189
smoothSolver:  Solving for Ux, Initial residual = 1.93139e-05, Final residual = 4.38157e-06, No Iterations 1
smoothSolver:  Solving for Uy, Initial residual = 1.51023e-05, Final residual = 3.99599e-06, No Iterations 1
GAMG:  Solving for p, Initial residual = 0.000284047, Final residual = 2.64028e-05, No Iterations 1
time step continuity errors : sum local = 6.88138e-07, global = 1.72054e-19, cumulative = -9.8699e-18
GAMG:  Solving for p, Initial residual = 7.36346e-05, Final residual = 6.66097e-07, No Iterations 3
time step continuity errors : sum local = 1.82284e-08, global = -7.18655e-19, cumulative = -1.05885e-17
smoothSolver:  Solving for epsilon, Initial residual = 9.60689e-06, Final residual = 9.60689e-06, No Iterations 0
smoothSolver:  Solving for k, Initial residual = 7.396e-05, Final residual = 3.01935e-06, No Iterations 2
ExecutionTime = 1.1 s  ClockTime = 1 s

Time = 19.9

Courant Number mean: 0.546465 max: 1.07189
smoothSolver:  Solving for Ux, Initial residual = 1.93378e-05, Final residual = 4.45512e-06, No Iterations 1
smoothSolver:  Solving for Uy, Initial residual = 1.50994e-05, Final residual = 3.97732e-06, No Iterations 1
GAMG:  Solving for p, Initial residual = 0.000282983, Final residual = 2.75956e-05, No Iterations 1
time step continuity errors : sum local = 7.16684e-07, global = 2.38228e-19, cumulative = -1.03503e-17
GAMG:  Solving for p, Initial residual = 7.58197e-05, Final residual = 6.68249e-07, No Iterations 3
time step continuity errors : sum local = 1.74318e-08, global = -5.90276e-19, cumulative = -1.09406e-17
smoothSolver:  Solving for epsilon, Initial residual = 1.02435e-05, Final residual = 2.04986e-06, No Iterations 1
smoothSolver:  Solving for k, Initial residual = 7.34673e-05, Final residual = 3.13185e-06, No Iterations 2
ExecutionTime = 1.1 s  ClockTime = 1 s

Time = 19.92

Courant Number mean: 0.546464 max: 1.07189
smoothSolver:  Solving for Ux, Initial residual = 1.92767e-05, Final residual = 4.39637e-06, No Iterations 1
smoothSolver:  Solving for Uy, Initial residual = 1.53969e-05, Final residual = 4.03766e-06, No Iterations 1
GAMG:  Solving for p, Initial residual = 0.000283873, Final residual = 2.63442e-05, No Iterations 1
time step continuity errors : sum local = 6.86444e-07, global = -1.17129e-18, cumulative = -1.21119e-17
GAMG:  Solving for p, Initial residual = 7.34059e-05, Final residual = 6.51244e-07, No Iterations 3
time step continuity errors : sum local = 1.77418e-08, global = -1.10511e-18, cumulative = -1.3217e-17
smoothSolver:  Solving for epsilon, Initial residual = 9.64088e-06, Final residual = 9.64088e-06, No Iterations 0
smoothSolver:  Solving for k, Initial residual = 7.36504e-05, Final residual = 3.21068e-06, No Iterations 2
ExecutionTime = 1.1 s  ClockTime = 1 s

Time = 19.94

Courant Number mean: 0.546464 max: 1.07189
smoothSolver:  Solving for Ux, Initial residual = 1.93089e-05, Final residual = 4.47864e-06, No Iterations 1
smoothSolver:  Solving for Uy, Initial residual = 1.54403e-05, Final residual = 4.00212e-06, No Iterations 1
GAMG:  Solving for p, Initial residual = 0.000282453, Final residual = 2.72869e-05, No Iterations 1
time step continuity errors : sum local = 7.09028e-07, global = 2.12883e-18, cumulative = -1.10882e-17
GAMG:  Solving for p, Initial residual = 7.56404e-05, Final residual = 6.86248e-07, No Iterations 3
time step continuity errors : sum local = 1.77988e-08, global = 1.64179e-18, cumulative = -9.44638e-18
smoothSolver:  Solving for epsilon, Initial residual = 1.02465e-05, Final residual = 2.05373e-06, No Iterations 1
smoothSolver:  Solving for k, Initial residual = 7.32573e-05, Final residual = 3.37576e-06, No Iterations 2
ExecutionTime = 1.1 s  ClockTime = 1 s

Time = 19.96

Courant Number mean: 0.546463 max: 1.07189
smoothSolver:  Solving for Ux, Initial residual = 1.92499e-05, Final residual = 4.43236e-06, No Iterations 1
smoothSolver:  Solving for Uy, Initial residual = 1.57207e-05, Final residual = 4.0525e-06, No Iterations 1
GAMG:  Solving for p, Initial residual = 0.000283462, Final residual = 2.62775e-05, No Iterations 1
time step continuity errors : sum local = 6.84472e-07, global = 6.20716e-19, cumulative = -8.82566e-18
GAMG:  Solving for p, Initial residual = 7.31682e-05, Final residual = 6.35331e-07, No Iterations 3
time step continuity errors : sum local = 1.72757e-08, global = -2.70653e-19, cumulative = -9.09632e-18
smoothSolver:  Solving for epsilon, Initial residual = 9.71322e-06, Final residual = 9.71322e-06, No Iterations 0
smoothSolver:  Solving for k, Initial residual = 7.35444e-05, Final residual = 3.51104e-06, No Iterations 2
ExecutionTime = 1.1 s  ClockTime = 1 s

Time = 19.98

Courant Number mean: 0.546462 max: 1.07189
smoothSolver:  Solving for Ux, Initial residual = 1.92426e-05, Final residual = 4.52e-06, No Iterations 1
smoothSolver:  Solving for Uy, Initial residual = 1.56724e-05, Final residual = 4.00726e-06, No Iterations 1
GAMG:  Solving for p, Initial residual = 0.000281679, Final residual = 2.70222e-05, No Iterations 1
time step continuity errors : sum local = 7.02392e-07, global = 1.24805e-18, cumulative = -7.84827e-18
GAMG:  Solving for p, Initial residual = 7.5403e-05, Final residual = 7.07595e-07, No Iterations 3
time step continuity errors : sum local = 1.84278e-08, global = 1.93957e-18, cumulative = -5.90869e-18
smoothSolver:  Solving for epsilon, Initial residual = 1.03167e-05, Final residual = 2.09389e-06, No Iterations 1
smoothSolver:  Solving for k, Initial residual = 7.32218e-05, Final residual = 3.68016e-06, No Iterations 2
ExecutionTime = 1.11 s  ClockTime = 1 s

Time = 20

Courant Number mean: 0.546461 max: 1.07189
smoothSolver:  Solving for Ux, Initial residual = 1.91981e-05, Final residual = 4.46893e-06, No Iterations 1
smoothSolver:  Solving for Uy, Initial residual = 1.58645e-05, Final residual = 4.04993e-06, No Iterations 1
GAMG:  Solving for p, Initial residual = 0.000283041, Final residual = 2.63199e-05, No Iterations 1
time step continuity errors : sum local = 6.85414e-07, global = 4.79103e-19, cumulative = -5.42959e-18
GAMG:  Solving for p, Initial residual = 7.29478e-05, Final residual = 6.24876e-07, No Iterations 3
time step continuity errors : sum local = 1.68916e-08, global = 6.31304e-19, cumulative = -4.79829e-18
smoothSolver:  Solving for epsilon, Initial residual = 9.67208e-06, Final residual = 9.67208e-06, No Iterations 0
smoothSolver:  Solving for k, Initial residual = 7.32674e-05, Final residual = 3.78578e-06, No Iterations 2
ExecutionTime = 1.11 s  ClockTime = 1 s

End

