/*---------------------------------------------------------------------------*\
| =========                 |                                                 |
| \\      /  F ield         | OpenFOAM: The Open Source CFD Toolbox           |
|  \\    /   O peration     | Version:  2.4.0                                 |
|   \\  /    A nd           | Web:      www.OpenFOAM.org                      |
|    \\/     M anipulation  |                                                 |
\*---------------------------------------------------------------------------*/
Build  : 2.4.0-f0842aea0e77
Exec   : icoFoam
Date   : Sep 28 2015
Time   : 11:08:18
Host   : "ubuntu"
PID    : 18171
Case   : /home/brennanharris/OpenFOAM/brennanharris-2.4.0/run/tutorials/incompressible/icoFoam/cavityHighRe
nProcs : 1
sigFpe : Enabling floating point exception trapping (FOAM_SIGFPE).
fileModificationChecking : Monitoring run-time modified files using timeStampMaster
allowSystemOperations : Allowing user-supplied system call operations

// * * * * * * * * * * * * * * * * * * * * * * * * * * * * * * * * * * * * * //
Create time

Create mesh for time = 0.5

Reading transportProperties

Reading field p

Reading field U

Reading/calculating face flux field phi


Starting time loop

Time = 0.505

Courant Number mean: 0.222158 max: 0.852134
smoothSolver:  Solving for Ux, Initial residual = 0.198014, Final residual = 2.2425e-06, No Iterations 4
smoothSolver:  Solving for Uy, Initial residual = 0.192389, Final residual = 1.70947e-06, No Iterations 4
DICPCG:  Solving for p, Initial residual = 0.75512, Final residual = 4.17793e-07, No Iterations 35
time step continuity errors : sum local = 1.23534e-08, global = -3.20284e-19, cumulative = -3.20284e-19
DICPCG:  Solving for p, Initial residual = 0.644251, Final residual = 3.22196e-07, No Iterations 35
time step continuity errors : sum local = 3.34277e-09, global = 6.11286e-20, cumulative = -2.59156e-19
ExecutionTime = 0.01 s  ClockTime = 0 s

Time = 0.51

Courant Number mean: 0.222154 max: 0.852687
smoothSolver:  Solving for Ux, Initial residual = 0.0107041, Final residual = 1.9848e-06, No Iterations 3
smoothSolver:  Solving for Uy, Initial residual = 0.0145899, Final residual = 2.89454e-06, No Iterations 3
DICPCG:  Solving for p, Initial residual = 0.10131, Final residual = 9.81697e-07, No Iterations 31
time step continuity errors : sum local = 6.99191e-09, global = 9.41166e-19, cumulative = 6.8201e-19
DICPCG:  Solving for p, Initial residual = 0.027563, Final residual = 9.01254e-07, No Iterations 30
time step continuity errors : sum local = 6.40924e-09, global = 7.86483e-19, cumulative = 1.46849e-18
ExecutionTime = 0.01 s  ClockTime = 0 s

Time = 0.515

Courant Number mean: 0.22198 max: 0.85274
smoothSolver:  Solving for Ux, Initial residual = 0.00869726, Final residual = 1.7136e-06, No Iterations 3
smoothSolver:  Solving for Uy, Initial residual = 0.0121616, Final residual = 2.66432e-06, No Iterations 3
DICPCG:  Solving for p, Initial residual = 0.0309638, Final residual = 9.72339e-07, No Iterations 30
time step continuity errors : sum local = 6.94874e-09, global = -1.5642e-19, cumulative = 1.31207e-18
DICPCG:  Solving for p, Initial residual = 0.00976506, Final residual = 8.85003e-07, No Iterations 29
time step continuity errors : sum local = 6.35882e-09, global = 8.67712e-19, cumulative = 2.17979e-18
ExecutionTime = 0.01 s  ClockTime = 0 s

Time = 0.52

Courant Number mean: 0.221761 max: 0.853037
smoothSolver:  Solving for Ux, Initial residual = 0.0074871, Final residual = 1.55022e-06, No Iterations 3
smoothSolver:  Solving for Uy, Initial residual = 0.0105639, Final residual = 2.4513e-06, No Iterations 3
DICPCG:  Solving for p, Initial residual = 0.0257741, Final residual = 8.34673e-07, No Iterations 30
time step continuity errors : sum local = 6.01279e-09, global = -3.1284e-19, cumulative = 1.86695e-18
DICPCG:  Solving for p, Initial residual = 0.00848298, Final residual = 7.50694e-07, No Iterations 29
time step continuity errors : sum local = 5.41616e-09, global = 4.55942e-19, cumulative = 2.32289e-18
ExecutionTime = 0.01 s  ClockTime = 0 s

Time = 0.525

Courant Number mean: 0.221504 max: 0.853444
smoothSolver:  Solving for Ux, Initial residual = 0.00657339, Final residual = 1.40454e-06, No Iterations 3
smoothSolver:  Solving for Uy, Initial residual = 0.00930639, Final residual = 2.262e-06, No Iterations 3
DICPCG:  Solving for p, Initial residual = 0.0223772, Final residual = 7.35302e-07, No Iterations 30
time step continuity errors : sum local = 5.31747e-09, global = 3.66937e-19, cumulative = 2.68983e-18
DICPCG:  Solving for p, Initial residual = 0.00766767, Final residual = 6.49503e-07, No Iterations 29
time step continuity errors : sum local = 4.71386e-09, global = 2.22181e-19, cumulative = 2.91201e-18
ExecutionTime = 0.02 s  ClockTime = 0 s

Time = 0.53

Courant Number mean: 0.221246 max: 0.85366
smoothSolver:  Solving for Ux, Initial residual = 0.00583604, Final residual = 1.27725e-06, No Iterations 3
smoothSolver:  Solving for Uy, Initial residual = 0.00831089, Final residual = 2.0931e-06, No Iterations 3
DICPCG:  Solving for p, Initial residual = 0.0201437, Final residual = 6.20444e-07, No Iterations 30
time step continuity errors : sum local = 4.50052e-09, global = -9.93113e-19, cumulative = 1.91889e-18
DICPCG:  Solving for p, Initial residual = 0.00691814, Final residual = 5.48856e-07, No Iterations 29
time step continuity errors : sum local = 3.99459e-09, global = -6.49833e-19, cumulative = 1.26906e-18
ExecutionTime = 0.02 s  ClockTime = 0 s

Time = 0.535

Courant Number mean: 0.221031 max: 0.853664
smoothSolver:  Solving for Ux, Initial residual = 0.00521896, Final residual = 1.16498e-06, No Iterations 3
smoothSolver:  Solving for Uy, Initial residual = 0.00749952, Final residual = 1.94636e-06, No Iterations 3
DICPCG:  Solving for p, Initial residual = 0.0182924, Final residual = 5.12764e-07, No Iterations 30
time step continuity errors : sum local = 3.72159e-09, global = -1.15474e-19, cumulative = 1.15359e-18
DICPCG:  Solving for p, Initial residual = 0.00605683, Final residual = 4.62955e-07, No Iterations 29
time step continuity errors : sum local = 3.37273e-09, global = -1.3517e-18, cumulative = -1.9811e-19
ExecutionTime = 0.02 s  ClockTime = 0 s

Time = 0.54

Courant Number mean: 0.220793 max: 0.853474
smoothSolver:  Solving for Ux, Initial residual = 0.00471267, Final residual = 1.06376e-06, No Iterations 3
smoothSolver:  Solving for Uy, Initial residual = 0.00679135, Final residual = 1.81275e-06, No Iterations 3
DICPCG:  Solving for p, Initial residual = 0.0159009, Final residual = 4.42564e-07, No Iterations 30
time step continuity errors : sum local = 3.21311e-09, global = 5.72161e-19, cumulative = 3.74051e-19
DICPCG:  Solving for p, Initial residual = 0.00566691, Final residual = 3.99384e-07, No Iterations 29
time step continuity errors : sum local = 2.91399e-09, global = 4.03664e-19, cumulative = 7.77715e-19
ExecutionTime = 0.02 s  ClockTime = 0 s

Time = 0.545

Courant Number mean: 0.220577 max: 0.853089
smoothSolver:  Solving for Ux, Initial residual = 0.00427038, Final residual = 9.73105e-07, No Iterations 3
smoothSolver:  Solving for Uy, Initial residual = 0.0061867, Final residual = 1.68877e-06, No Iterations 3
DICPCG:  Solving for p, Initial residual = 0.0145283, Final residual = 3.9968e-07, No Iterations 30
time step continuity errors : sum local = 2.90086e-09, global = -3.79593e-19, cumulative = 3.98122e-19
DICPCG:  Solving for p, Initial residual = 0.00508885, Final residual = 8.61028e-07, No Iterations 28
time step continuity errors : sum local = 6.29317e-09, global = 8.25526e-20, cumulative = 4.80675e-19
ExecutionTime = 0.02 s  ClockTime = 0 s

Time = 0.55

Courant Number mean: 0.220368 max: 0.852589
smoothSolver:  Solving for Ux, Initial residual = 0.00388711, Final residual = 8.89309e-07, No Iterations 3
smoothSolver:  Solving for Uy, Initial residual = 0.00567273, Final residual = 1.57532e-06, No Iterations 3
DICPCG:  Solving for p, Initial residual = 0.0131708, Final residual = 9.07807e-07, No Iterations 29
time step continuity errors : sum local = 6.62139e-09, global = 1.17625e-19, cumulative = 5.983e-19
DICPCG:  Solving for p, Initial residual = 0.00463959, Final residual = 7.14446e-07, No Iterations 28
time step continuity errors : sum local = 5.22438e-09, global = 2.38724e-19, cumulative = 8.37024e-19
ExecutionTime = 0.02 s  ClockTime = 0 s

Time = 0.555

Courant Number mean: 0.220173 max: 0.851929
smoothSolver:  Solving for Ux, Initial residual = 0.00355628, Final residual = 8.16983e-07, No Iterations 3
smoothSolver:  Solving for Uy, Initial residual = 0.00519603, Final residual = 1.46916e-06, No Iterations 3
DICPCG:  Solving for p, Initial residual = 0.0119069, Final residual = 7.84341e-07, No Iterations 29
time step continuity errors : sum local = 5.72304e-09, global = 2.39138e-19, cumulative = 1.07616e-18
DICPCG:  Solving for p, Initial residual = 0.00423308, Final residual = 5.4774e-07, No Iterations 28
time step continuity errors : sum local = 4.00805e-09, global = -3.2897e-19, cumulative = 7.47192e-19
ExecutionTime = 0.02 s  ClockTime = 0 s

Time = 0.56

Courant Number mean: 0.219974 max: 0.8514
smoothSolver:  Solving for Ux, Initial residual = 0.00326333, Final residual = 7.5541e-07, No Iterations 3
smoothSolver:  Solving for Uy, Initial residual = 0.0047607, Final residual = 1.36782e-06, No Iterations 3
DICPCG:  Solving for p, Initial residual = 0.0106779, Final residual = 7.01914e-07, No Iterations 29
time step continuity errors : sum local = 5.12151e-09, global = -5.17567e-19, cumulative = 2.29625e-19
DICPCG:  Solving for p, Initial residual = 0.00384061, Final residual = 9.93377e-07, No Iterations 27
time step continuity errors : sum local = 7.21797e-09, global = -2.83309e-19, cumulative = -5.3684e-20
ExecutionTime = 0.02 s  ClockTime = 0 s

Time = 0.565

Courant Number mean: 0.219789 max: 0.851254
smoothSolver:  Solving for Ux, Initial residual = 0.00299651, Final residual = 6.99257e-07, No Iterations 3
smoothSolver:  Solving for Uy, Initial residual = 0.00438806, Final residual = 1.27482e-06, No Iterations 3
DICPCG:  Solving for p, Initial residual = 0.00976852, Final residual = 6.04985e-07, No Iterations 29
time step continuity errors : sum local = 4.41443e-09, global = 1.18287e-20, cumulative = -4.18554e-20
DICPCG:  Solving for p, Initial residual = 0.00350014, Final residual = 7.68586e-07, No Iterations 27
time step continuity errors : sum local = 5.57308e-09, global = -1.62458e-19, cumulative = -2.04314e-19
ExecutionTime = 0.03 s  ClockTime = 0 s

Time = 0.57

Courant Number mean: 0.219617 max: 0.851015
smoothSolver:  Solving for Ux, Initial residual = 0.00275914, Final residual = 6.49581e-07, No Iterations 3
smoothSolver:  Solving for Uy, Initial residual = 0.00405319, Final residual = 1.18748e-06, No Iterations 3
DICPCG:  Solving for p, Initial residual = 0.00886064, Final residual = 9.93663e-07, No Iterations 28
time step continuity errors : sum local = 7.27651e-09, global = 6.23942e-19, cumulative = 4.19629e-19
DICPCG:  Solving for p, Initial residual = 0.00318561, Final residual = 6.18845e-07, No Iterations 27
time step continuity errors : sum local = 4.46926e-09, global = 5.72574e-19, cumulative = 9.92203e-19
ExecutionTime = 0.03 s  ClockTime = 0 s

Time = 0.575

Courant Number mean: 0.21945 max: 0.850667
smoothSolver:  Solving for Ux, Initial residual = 0.00254279, Final residual = 9.42327e-06, No Iterations 2
smoothSolver:  Solving for Uy, Initial residual = 0.00374339, Final residual = 1.10514e-06, No Iterations 3
DICPCG:  Solving for p, Initial residual = 0.00803141, Final residual = 8.04598e-07, No Iterations 28
time step continuity errors : sum local = 5.88426e-09, global = -7.60593e-19, cumulative = 2.31611e-19
DICPCG:  Solving for p, Initial residual = 0.00287936, Final residual = 6.85902e-07, No Iterations 24
time step continuity errors : sum local = 5.09184e-09, global = 1.44335e-18, cumulative = 1.67496e-18
ExecutionTime = 0.03 s  ClockTime = 0 s

Time = 0.58

Courant Number mean: 0.219299 max: 0.850274
smoothSolver:  Solving for Ux, Initial residual = 0.00234703, Final residual = 8.76881e-06, No Iterations 2
smoothSolver:  Solving for Uy, Initial residual = 0.00345437, Final residual = 1.02866e-06, No Iterations 3
DICPCG:  Solving for p, Initial residual = 0.00745689, Final residual = 6.95792e-07, No Iterations 28
time step continuity errors : sum local = 5.07985e-09, global = 7.84498e-19, cumulative = 2.45946e-18
DICPCG:  Solving for p, Initial residual = 0.00260816, Final residual = 4.84779e-07, No Iterations 27
time step continuity errors : sum local = 3.51665e-09, global = 3.03079e-19, cumulative = 2.76254e-18
ExecutionTime = 0.03 s  ClockTime = 0 s

Time = 0.585

Courant Number mean: 0.219167 max: 0.849841
smoothSolver:  Solving for Ux, Initial residual = 0.0021683, Final residual = 8.15347e-06, No Iterations 2
smoothSolver:  Solving for Uy, Initial residual = 0.00318966, Final residual = 9.5867e-07, No Iterations 3
DICPCG:  Solving for p, Initial residual = 0.00687125, Final residual = 6.5473e-07, No Iterations 28
time step continuity errors : sum local = 4.77763e-09, global = 1.3402e-18, cumulative = 4.10273e-18
DICPCG:  Solving for p, Initial residual = 0.00240608, Final residual = 6.11525e-07, No Iterations 27
time step continuity errors : sum local = 4.41919e-09, global = 1.30645e-18, cumulative = 5.40918e-18
ExecutionTime = 0.03 s  ClockTime = 0 s

Time = 0.59

Courant Number mean: 0.219041 max: 0.849381
smoothSolver:  Solving for Ux, Initial residual = 0.00201158, Final residual = 7.60843e-06, No Iterations 2
smoothSolver:  Solving for Uy, Initial residual = 0.00294667, Final residual = 8.91561e-07, No Iterations 3
DICPCG:  Solving for p, Initial residual = 0.00614443, Final residual = 5.4898e-07, No Iterations 28
time step continuity errors : sum local = 4.00727e-09, global = 9.31984e-19, cumulative = 6.34117e-18
DICPCG:  Solving for p, Initial residual = 0.00217997, Final residual = 5.28447e-07, No Iterations 27
time step continuity errors : sum local = 3.81902e-09, global = -2.08119e-18, cumulative = 4.25998e-18
ExecutionTime = 0.03 s  ClockTime = 0 s

Time = 0.595

Courant Number mean: 0.218922 max: 0.848905
smoothSolver:  Solving for Ux, Initial residual = 0.00186606, Final residual = 7.09625e-06, No Iterations 2
smoothSolver:  Solving for Uy, Initial residual = 0.00272389, Final residual = 8.29608e-07, No Iterations 3
DICPCG:  Solving for p, Initial residual = 0.00545877, Final residual = 5.3618e-07, No Iterations 28
time step continuity errors : sum local = 3.89927e-09, global = 2.58908e-20, cumulative = 4.28587e-18
DICPCG:  Solving for p, Initial residual = 0.00195265, Final residual = 5.24648e-07, No Iterations 27
time step continuity errors : sum local = 3.79804e-09, global = 4.35924e-20, cumulative = 4.32946e-18
ExecutionTime = 0.03 s  ClockTime = 0 s

Time = 0.6

Courant Number mean: 0.218813 max: 0.84842
smoothSolver:  Solving for Ux, Initial residual = 0.00173548, Final residual = 6.65218e-06, No Iterations 2
smoothSolver:  Solving for Uy, Initial residual = 0.00251726, Final residual = 7.71465e-07, No Iterations 3
DICPCG:  Solving for p, Initial residual = 0.00493007, Final residual = 4.99032e-07, No Iterations 28
time step continuity errors : sum local = 3.61209e-09, global = -4.07883e-19, cumulative = 3.92158e-18
DICPCG:  Solving for p, Initial residual = 0.00175226, Final residual = 5.02828e-07, No Iterations 27
time step continuity errors : sum local = 3.64396e-09, global = 4.35097e-20, cumulative = 3.96509e-18
ExecutionTime = 0.04 s  ClockTime = 0 s

Time = 0.605

Courant Number mean: 0.218718 max: 0.847932
smoothSolver:  Solving for Ux, Initial residual = 0.00161887, Final residual = 6.24804e-06, No Iterations 2
smoothSolver:  Solving for Uy, Initial residual = 0.00232682, Final residual = 7.16895e-07, No Iterations 3
DICPCG:  Solving for p, Initial residual = 0.00447539, Final residual = 4.95323e-07, No Iterations 28
time step continuity errors : sum local = 3.57602e-09, global = -1.25558e-18, cumulative = 2.70951e-18
DICPCG:  Solving for p, Initial residual = 0.00159451, Final residual = 9.46508e-07, No Iterations 26
time step continuity errors : sum local = 6.9153e-09, global = -7.25768e-19, cumulative = 1.98374e-18
ExecutionTime = 0.04 s  ClockTime = 0 s

Time = 0.61

Courant Number mean: 0.218631 max: 0.847449
smoothSolver:  Solving for Ux, Initial residual = 0.00151001, Final residual = 5.86924e-06, No Iterations 2
smoothSolver:  Solving for Uy, Initial residual = 0.00215072, Final residual = 9.59342e-06, No Iterations 2
DICPCG:  Solving for p, Initial residual = 0.00428007, Final residual = 5.09098e-07, No Iterations 28
time step continuity errors : sum local = 3.67111e-09, global = 2.75617e-19, cumulative = 2.25936e-18
DICPCG:  Solving for p, Initial residual = 0.00142569, Final residual = 8.5242e-07, No Iterations 26
time step continuity errors : sum local = 6.22755e-09, global = 5.07062e-20, cumulative = 2.31007e-18
ExecutionTime = 0.04 s  ClockTime = 0 s

Time = 0.615

Courant Number mean: 0.218558 max: 0.846973
smoothSolver:  Solving for Ux, Initial residual = 0.00141081, Final residual = 5.51414e-06, No Iterations 2
smoothSolver:  Solving for Uy, Initial residual = 0.00198863, Final residual = 8.90289e-06, No Iterations 2
DICPCG:  Solving for p, Initial residual = 0.00384668, Final residual = 4.91279e-07, No Iterations 28
time step continuity errors : sum local = 3.54623e-09, global = 9.67719e-19, cumulative = 3.27779e-18
DICPCG:  Solving for p, Initial residual = 0.00133166, Final residual = 9.98443e-07, No Iterations 25
time step continuity errors : sum local = 7.31116e-09, global = 2.10021e-19, cumulative = 3.48781e-18
ExecutionTime = 0.04 s  ClockTime = 0 s

Time = 0.62

Courant Number mean: 0.218498 max: 0.846508
smoothSolver:  Solving for Ux, Initial residual = 0.00132106, Final residual = 5.19558e-06, No Iterations 2
smoothSolver:  Solving for Uy, Initial residual = 0.00183966, Final residual = 8.25937e-06, No Iterations 2
DICPCG:  Solving for p, Initial residual = 0.00344699, Final residual = 9.95036e-07, No Iterations 27
time step continuity errors : sum local = 7.23174e-09, global = 1.01842e-18, cumulative = 4.50623e-18
DICPCG:  Solving for p, Initial residual = 0.00118125, Final residual = 8.11599e-07, No Iterations 25
time step continuity errors : sum local = 5.96076e-09, global = -1.05813e-18, cumulative = 3.4481e-18
ExecutionTime = 0.04 s  ClockTime = 0 s

Time = 0.625

Courant Number mean: 0.218447 max: 0.846061
smoothSolver:  Solving for Ux, Initial residual = 0.00123655, Final residual = 4.89506e-06, No Iterations 2
smoothSolver:  Solving for Uy, Initial residual = 0.00170523, Final residual = 7.67477e-06, No Iterations 2
DICPCG:  Solving for p, Initial residual = 0.00306854, Final residual = 8.55557e-07, No Iterations 25
time step continuity errors : sum local = 6.19194e-09, global = -7.39251e-19, cumulative = 2.70885e-18
DICPCG:  Solving for p, Initial residual = 0.00106584, Final residual = 8.58119e-07, No Iterations 25
time step continuity errors : sum local = 6.21762e-09, global = -9.94271e-20, cumulative = 2.60942e-18
ExecutionTime = 0.04 s  ClockTime = 0 s

Time = 0.63

Courant Number mean: 0.218404 max: 0.845639
smoothSolver:  Solving for Ux, Initial residual = 0.00115932, Final residual = 4.6254e-06, No Iterations 2
smoothSolver:  Solving for Uy, Initial residual = 0.00158126, Final residual = 7.1343e-06, No Iterations 2
DICPCG:  Solving for p, Initial residual = 0.00275542, Final residual = 5.67976e-07, No Iterations 27
time step continuity errors : sum local = 4.12998e-09, global = -1.15226e-18, cumulative = 1.45716e-18
DICPCG:  Solving for p, Initial residual = 0.000970053, Final residual = 7.62334e-07, No Iterations 25
time step continuity errors : sum local = 5.5217e-09, global = -1.07848e-18, cumulative = 3.78683e-19
ExecutionTime = 0.04 s  ClockTime = 0 s

Time = 0.635

Courant Number mean: 0.218372 max: 0.845235
smoothSolver:  Solving for Ux, Initial residual = 0.00108931, Final residual = 4.38514e-06, No Iterations 2
smoothSolver:  Solving for Uy, Initial residual = 0.00146588, Final residual = 6.63705e-06, No Iterations 2
DICPCG:  Solving for p, Initial residual = 0.00261632, Final residual = 4.79222e-07, No Iterations 27
time step continuity errors : sum local = 3.49422e-09, global = 6.06572e-19, cumulative = 9.85255e-19
DICPCG:  Solving for p, Initial residual = 0.000904422, Final residual = 7.3149e-07, No Iterations 25
time step continuity errors : sum local = 5.29258e-09, global = 6.20385e-21, cumulative = 9.91459e-19
ExecutionTime = 0.04 s  ClockTime = 0 s

Time = 0.64

Courant Number mean: 0.21835 max: 0.844851
smoothSolver:  Solving for Ux, Initial residual = 0.0010265, Final residual = 4.17487e-06, No Iterations 2
smoothSolver:  Solving for Uy, Initial residual = 0.00135822, Final residual = 6.17766e-06, No Iterations 2
DICPCG:  Solving for p, Initial residual = 0.00240405, Final residual = 8.63462e-07, No Iterations 26
time step continuity errors : sum local = 6.29787e-09, global = -7.53313e-19, cumulative = 2.38145e-19
DICPCG:  Solving for p, Initial residual = 0.000803268, Final residual = 6.51828e-07, No Iterations 25
time step continuity errors : sum local = 4.7181e-09, global = 4.09785e-19, cumulative = 6.47931e-19
ExecutionTime = 0.04 s  ClockTime = 0 s

Time = 0.645

Courant Number mean: 0.218334 max: 0.844492
smoothSolver:  Solving for Ux, Initial residual = 0.000968053, Final residual = 3.97817e-06, No Iterations 2
smoothSolver:  Solving for Uy, Initial residual = 0.00126146, Final residual = 5.76407e-06, No Iterations 2
DICPCG:  Solving for p, Initial residual = 0.00212273, Final residual = 6.84554e-07, No Iterations 26
time step continuity errors : sum local = 4.9693e-09, global = 4.87044e-19, cumulative = 1.13497e-18
DICPCG:  Solving for p, Initial residual = 0.00074749, Final residual = 6.58906e-07, No Iterations 25
time step continuity errors : sum local = 4.74155e-09, global = -1.37635e-18, cumulative = -2.41371e-19
ExecutionTime = 0.04 s  ClockTime = 0 s

Time = 0.65

Courant Number mean: 0.218323 max: 0.844148
smoothSolver:  Solving for Ux, Initial residual = 0.000916114, Final residual = 3.79816e-06, No Iterations 2
smoothSolver:  Solving for Uy, Initial residual = 0.00117107, Final residual = 5.36986e-06, No Iterations 2
DICPCG:  Solving for p, Initial residual = 0.00197357, Final residual = 6.65786e-07, No Iterations 26
time step continuity errors : sum local = 4.81499e-09, global = -2.80993e-19, cumulative = -5.22365e-19
DICPCG:  Solving for p, Initial residual = 0.000692548, Final residual = 6.56748e-07, No Iterations 25
time step continuity errors : sum local = 4.72146e-09, global = -8.45048e-19, cumulative = -1.36741e-18
ExecutionTime = 0.04 s  ClockTime = 0 s

Time = 0.655

Courant Number mean: 0.218318 max: 0.843824
smoothSolver:  Solving for Ux, Initial residual = 0.000868539, Final residual = 3.63131e-06, No Iterations 2
smoothSolver:  Solving for Uy, Initial residual = 0.00108901, Final residual = 5.01179e-06, No Iterations 2
DICPCG:  Solving for p, Initial residual = 0.00184759, Final residual = 6.84137e-07, No Iterations 26
time step continuity errors : sum local = 4.93042e-09, global = 7.43718e-19, cumulative = -6.23694e-19
DICPCG:  Solving for p, Initial residual = 0.000639594, Final residual = 6.55306e-07, No Iterations 25
time step continuity errors : sum local = 4.71397e-09, global = -3.51386e-19, cumulative = -9.75081e-19
ExecutionTime = 0.05 s  ClockTime = 0 s

Time = 0.66

Courant Number mean: 0.21832 max: 0.843518
smoothSolver:  Solving for Ux, Initial residual = 0.000824262, Final residual = 3.48143e-06, No Iterations 2
smoothSolver:  Solving for Uy, Initial residual = 0.00101406, Final residual = 4.68792e-06, No Iterations 2
DICPCG:  Solving for p, Initial residual = 0.0017204, Final residual = 9.16274e-07, No Iterations 25
time step continuity errors : sum local = 6.58934e-09, global = -7.8913e-20, cumulative = -1.05399e-18
DICPCG:  Solving for p, Initial residual = 0.000601789, Final residual = 9.86638e-07, No Iterations 24
time step continuity errors : sum local = 7.10989e-09, global = -5.5934e-19, cumulative = -1.61333e-18
ExecutionTime = 0.05 s  ClockTime = 0 s

Time = 0.665

Courant Number mean: 0.218326 max: 0.843232
smoothSolver:  Solving for Ux, Initial residual = 0.000783279, Final residual = 3.34627e-06, No Iterations 2
smoothSolver:  Solving for Uy, Initial residual = 0.00094571, Final residual = 4.39324e-06, No Iterations 2
DICPCG:  Solving for p, Initial residual = 0.00159377, Final residual = 8.75524e-07, No Iterations 24
time step continuity errors : sum local = 6.28995e-09, global = -7.33626e-19, cumulative = -2.34696e-18
DICPCG:  Solving for p, Initial residual = 0.000561185, Final residual = 9.02592e-07, No Iterations 24
time step continuity errors : sum local = 6.50365e-09, global = 5.93337e-19, cumulative = -1.75362e-18
ExecutionTime = 0.05 s  ClockTime = 0 s

Time = 0.67

Courant Number mean: 0.218338 max: 0.842964
smoothSolver:  Solving for Ux, Initial residual = 0.000745998, Final residual = 3.22273e-06, No Iterations 2
smoothSolver:  Solving for Uy, Initial residual = 0.000883919, Final residual = 4.12246e-06, No Iterations 2
DICPCG:  Solving for p, Initial residual = 0.00149001, Final residual = 6.24817e-07, No Iterations 23
time step continuity errors : sum local = 4.5121e-09, global = -8.96416e-19, cumulative = -2.65004e-18
DICPCG:  Solving for p, Initial residual = 0.000525776, Final residual = 5.87813e-07, No Iterations 22
time step continuity errors : sum local = 4.26285e-09, global = -7.20061e-19, cumulative = -3.3701e-18
ExecutionTime = 0.05 s  ClockTime = 0 s

Time = 0.675

Courant Number mean: 0.218354 max: 0.842713
smoothSolver:  Solving for Ux, Initial residual = 0.000711, Final residual = 3.10714e-06, No Iterations 2
smoothSolver:  Solving for Uy, Initial residual = 0.000827606, Final residual = 3.8737e-06, No Iterations 2
DICPCG:  Solving for p, Initial residual = 0.00139922, Final residual = 7.73553e-07, No Iterations 26
time step continuity errors : sum local = 5.57693e-09, global = 5.17815e-20, cumulative = -3.31832e-18
DICPCG:  Solving for p, Initial residual = 0.000493777, Final residual = 9.41745e-07, No Iterations 21
time step continuity errors : sum local = 6.8124e-09, global = -9.08244e-20, cumulative = -3.40914e-18
ExecutionTime = 0.05 s  ClockTime = 0 s

Time = 0.68

Courant Number mean: 0.218374 max: 0.842479
smoothSolver:  Solving for Ux, Initial residual = 0.000678574, Final residual = 2.99957e-06, No Iterations 2
smoothSolver:  Solving for Uy, Initial residual = 0.000775587, Final residual = 3.65202e-06, No Iterations 2
DICPCG:  Solving for p, Initial residual = 0.00132845, Final residual = 9.49155e-07, No Iterations 26
time step continuity errors : sum local = 6.84374e-09, global = -6.93922e-19, cumulative = -4.10306e-18
DICPCG:  Solving for p, Initial residual = 0.000464169, Final residual = 7.50401e-07, No Iterations 24
time step continuity errors : sum local = 5.40459e-09, global = -8.86572e-19, cumulative = -4.98964e-18
ExecutionTime = 0.05 s  ClockTime = 0 s

Time = 0.685

Courant Number mean: 0.218397 max: 0.842261
smoothSolver:  Solving for Ux, Initial residual = 0.000648135, Final residual = 2.89798e-06, No Iterations 2
smoothSolver:  Solving for Uy, Initial residual = 0.000727835, Final residual = 3.45276e-06, No Iterations 2
DICPCG:  Solving for p, Initial residual = 0.00123644, Final residual = 9.51919e-07, No Iterations 26
time step continuity errors : sum local = 6.86431e-09, global = 4.24923e-19, cumulative = -4.56471e-18
DICPCG:  Solving for p, Initial residual = 0.000436463, Final residual = 6.86397e-07, No Iterations 24
time step continuity errors : sum local = 4.94205e-09, global = 4.22441e-19, cumulative = -4.14227e-18
ExecutionTime = 0.05 s  ClockTime = 0 s

Time = 0.69

Courant Number mean: 0.218426 max: 0.842058
smoothSolver:  Solving for Ux, Initial residual = 0.000619804, Final residual = 2.80443e-06, No Iterations 2
smoothSolver:  Solving for Uy, Initial residual = 0.000683925, Final residual = 3.26956e-06, No Iterations 2
DICPCG:  Solving for p, Initial residual = 0.00116203, Final residual = 8.8016e-07, No Iterations 26
time step continuity errors : sum local = 6.34711e-09, global = 2.92326e-19, cumulative = -3.84995e-18
DICPCG:  Solving for p, Initial residual = 0.000410828, Final residual = 9.64164e-07, No Iterations 21
time step continuity errors : sum local = 7.00319e-09, global = 6.42885e-19, cumulative = -3.20706e-18
ExecutionTime = 0.05 s  ClockTime = 0 s

Time = 0.695

Courant Number mean: 0.218458 max: 0.841869
smoothSolver:  Solving for Ux, Initial residual = 0.000592833, Final residual = 2.71718e-06, No Iterations 2
smoothSolver:  Solving for Uy, Initial residual = 0.00064382, Final residual = 3.09754e-06, No Iterations 2
DICPCG:  Solving for p, Initial residual = 0.00112497, Final residual = 9.34612e-07, No Iterations 26
time step continuity errors : sum local = 6.73604e-09, global = 1.29752e-18, cumulative = -1.90955e-18
DICPCG:  Solving for p, Initial residual = 0.000387084, Final residual = 9.57485e-07, No Iterations 21
time step continuity errors : sum local = 6.96467e-09, global = -1.69407e-19, cumulative = -2.07895e-18
ExecutionTime = 0.06 s  ClockTime = 0 s

Time = 0.7

Courant Number mean: 0.218493 max: 0.841693
smoothSolver:  Solving for Ux, Initial residual = 0.000567366, Final residual = 2.63254e-06, No Iterations 2
smoothSolver:  Solving for Uy, Initial residual = 0.000607097, Final residual = 2.93979e-06, No Iterations 2
DICPCG:  Solving for p, Initial residual = 0.0010293, Final residual = 8.5585e-07, No Iterations 26
time step continuity errors : sum local = 6.16906e-09, global = 1.19966e-18, cumulative = -8.79293e-19
DICPCG:  Solving for p, Initial residual = 0.000365638, Final residual = 9.20608e-07, No Iterations 24
time step continuity errors : sum local = 6.61913e-09, global = 3.09862e-19, cumulative = -5.69431e-19
ExecutionTime = 0.06 s  ClockTime = 0 s

Time = 0.705

Courant Number mean: 0.21853 max: 0.84153
smoothSolver:  Solving for Ux, Initial residual = 0.000543494, Final residual = 2.5507e-06, No Iterations 2
smoothSolver:  Solving for Uy, Initial residual = 0.000573747, Final residual = 2.79405e-06, No Iterations 2
DICPCG:  Solving for p, Initial residual = 0.000969263, Final residual = 8.28212e-07, No Iterations 26
time step continuity errors : sum local = 5.96754e-09, global = 1.32506e-18, cumulative = 7.55629e-19
DICPCG:  Solving for p, Initial residual = 0.000345499, Final residual = 9.20607e-07, No Iterations 24
time step continuity errors : sum local = 6.61258e-09, global = 2.24249e-19, cumulative = 9.79878e-19
ExecutionTime = 0.06 s  ClockTime = 0 s

Time = 0.71

Courant Number mean: 0.218571 max: 0.841379
smoothSolver:  Solving for Ux, Initial residual = 0.000520966, Final residual = 2.47241e-06, No Iterations 2
smoothSolver:  Solving for Uy, Initial residual = 0.000542956, Final residual = 2.66005e-06, No Iterations 2
DICPCG:  Solving for p, Initial residual = 0.000915462, Final residual = 7.97839e-07, No Iterations 26
time step continuity errors : sum local = 5.74584e-09, global = -8.31482e-19, cumulative = 1.48396e-19
DICPCG:  Solving for p, Initial residual = 0.00032677, Final residual = 8.49517e-07, No Iterations 15
time step continuity errors : sum local = 9.10686e-09, global = 1.65436e-19, cumulative = 3.13832e-19
ExecutionTime = 0.06 s  ClockTime = 0 s

Time = 0.715

Courant Number mean: 0.218614 max: 0.841239
smoothSolver:  Solving for Ux, Initial residual = 0.000499599, Final residual = 2.39643e-06, No Iterations 2
smoothSolver:  Solving for Uy, Initial residual = 0.000514699, Final residual = 2.53424e-06, No Iterations 2
DICPCG:  Solving for p, Initial residual = 0.000875271, Final residual = 4.31673e-07, No Iterations 16
time step continuity errors : sum local = 3.13994e-09, global = 3.29135e-19, cumulative = 6.42967e-19
DICPCG:  Solving for p, Initial residual = 0.000310246, Final residual = 9.82971e-07, No Iterations 14
time step continuity errors : sum local = 7.8053e-09, global = 7.55464e-19, cumulative = 1.39843e-18
ExecutionTime = 0.06 s  ClockTime = 0 s

Time = 0.72

Courant Number mean: 0.218658 max: 0.841109
smoothSolver:  Solving for Ux, Initial residual = 0.000479003, Final residual = 2.32235e-06, No Iterations 2
smoothSolver:  Solving for Uy, Initial residual = 0.000488812, Final residual = 2.41909e-06, No Iterations 2
DICPCG:  Solving for p, Initial residual = 0.000818814, Final residual = 6.97384e-07, No Iterations 26
time step continuity errors : sum local = 5.01841e-09, global = 6.79529e-19, cumulative = 2.07796e-18
DICPCG:  Solving for p, Initial residual = 0.00029281, Final residual = 5.68942e-07, No Iterations 15
time step continuity errors : sum local = 6.07827e-09, global = 1.3201e-18, cumulative = 3.39806e-18
ExecutionTime = 0.06 s  ClockTime = 0 s

Time = 0.725

Courant Number mean: 0.218705 max: 0.840988
smoothSolver:  Solving for Ux, Initial residual = 0.000459616, Final residual = 2.25168e-06, No Iterations 2
smoothSolver:  Solving for Uy, Initial residual = 0.000465027, Final residual = 2.31644e-06, No Iterations 2
DICPCG:  Solving for p, Initial residual = 0.000775623, Final residual = 4.31163e-07, No Iterations 16
time step continuity errors : sum local = 3.25257e-09, global = 4.53212e-19, cumulative = 3.85127e-18
DICPCG:  Solving for p, Initial residual = 0.000277672, Final residual = 8.72998e-07, No Iterations 14
time step continuity errors : sum local = 6.68269e-09, global = -5.82914e-19, cumulative = 3.26836e-18
ExecutionTime = 0.06 s  ClockTime = 0 s

Time = 0.73

Courant Number mean: 0.218752 max: 0.840877
smoothSolver:  Solving for Ux, Initial residual = 0.00044112, Final residual = 2.18328e-06, No Iterations 2
smoothSolver:  Solving for Uy, Initial residual = 0.00044307, Final residual = 2.22165e-06, No Iterations 2
DICPCG:  Solving for p, Initial residual = 0.000734701, Final residual = 6.81312e-07, No Iterations 16
time step continuity errors : sum local = 7.02769e-09, global = -1.0511e-18, cumulative = 2.21726e-18
DICPCG:  Solving for p, Initial residual = 0.000263083, Final residual = 8.95464e-07, No Iterations 14
time step continuity errors : sum local = 7.72252e-09, global = 4.82246e-19, cumulative = 2.6995e-18
ExecutionTime = 0.06 s  ClockTime = 0 s

Time = 0.735

Courant Number mean: 0.218801 max: 0.840773
smoothSolver:  Solving for Ux, Initial residual = 0.000423894, Final residual = 2.1177e-06, No Iterations 2
smoothSolver:  Solving for Uy, Initial residual = 0.000422394, Final residual = 2.13498e-06, No Iterations 2
DICPCG:  Solving for p, Initial residual = 0.000696433, Final residual = 8.93724e-07, No Iterations 16
time step continuity errors : sum local = 9.24663e-09, global = 2.59487e-19, cumulative = 2.95899e-18
DICPCG:  Solving for p, Initial residual = 0.0002494, Final residual = 9.82171e-07, No Iterations 14
time step continuity errors : sum local = 9.07731e-09, global = -3.18795e-19, cumulative = 2.6402e-18
ExecutionTime = 0.07 s  ClockTime = 0 s

Time = 0.74

Courant Number mean: 0.218851 max: 0.840678
smoothSolver:  Solving for Ux, Initial residual = 0.000407668, Final residual = 2.05449e-06, No Iterations 2
smoothSolver:  Solving for Uy, Initial residual = 0.000403471, Final residual = 2.05407e-06, No Iterations 2
DICPCG:  Solving for p, Initial residual = 0.000660096, Final residual = 6.72922e-07, No Iterations 16
time step continuity errors : sum local = 6.8622e-09, global = -4.83322e-19, cumulative = 2.15687e-18
DICPCG:  Solving for p, Initial residual = 0.000236652, Final residual = 8.67489e-07, No Iterations 14
time step continuity errors : sum local = 7.82284e-09, global = -3.50973e-19, cumulative = 1.8059e-18
ExecutionTime = 0.07 s  ClockTime = 0 s

Time = 0.745

Courant Number mean: 0.218901 max: 0.840589
smoothSolver:  Solving for Ux, Initial residual = 0.000392413, Final residual = 1.99336e-06, No Iterations 2
smoothSolver:  Solving for Uy, Initial residual = 0.00038601, Final residual = 1.97797e-06, No Iterations 2
DICPCG:  Solving for p, Initial residual = 0.000625788, Final residual = 8.53054e-07, No Iterations 15
time step continuity errors : sum local = 6.21393e-09, global = -7.45786e-19, cumulative = 1.06011e-18
DICPCG:  Solving for p, Initial residual = 0.000224718, Final residual = 7.09927e-07, No Iterations 14
time step continuity errors : sum local = 5.3192e-09, global = -6.99878e-19, cumulative = 3.60237e-19
ExecutionTime = 0.07 s  ClockTime = 0 s

Time = 0.75

Courant Number mean: 0.218953 max: 0.840508
smoothSolver:  Solving for Ux, Initial residual = 0.000377938, Final residual = 1.93392e-06, No Iterations 2
smoothSolver:  Solving for Uy, Initial residual = 0.000369711, Final residual = 1.90775e-06, No Iterations 2
DICPCG:  Solving for p, Initial residual = 0.000593607, Final residual = 9.68015e-07, No Iterations 15
time step continuity errors : sum local = 9.29279e-09, global = -2.30204e-19, cumulative = 1.30033e-19
DICPCG:  Solving for p, Initial residual = 0.000213465, Final residual = 8.53636e-07, No Iterations 14
time step continuity errors : sum local = 7.90197e-09, global = -1.27758e-18, cumulative = -1.14755e-18
ExecutionTime = 0.07 s  ClockTime = 0 s

Time = 0.755

Courant Number mean: 0.219004 max: 0.840432
smoothSolver:  Solving for Ux, Initial residual = 0.000364195, Final residual = 1.87593e-06, No Iterations 2
smoothSolver:  Solving for Uy, Initial residual = 0.000354752, Final residual = 1.84141e-06, No Iterations 2
DICPCG:  Solving for p, Initial residual = 0.00056381, Final residual = 5.01353e-07, No Iterations 26
time step continuity errors : sum local = 3.60957e-09, global = 6.24604e-19, cumulative = -5.22944e-19
DICPCG:  Solving for p, Initial residual = 0.000202899, Final residual = 8.02456e-07, No Iterations 14
time step continuity errors : sum local = 7.4259e-09, global = -1.37949e-18, cumulative = -1.90243e-18
ExecutionTime = 0.07 s  ClockTime = 0 s

Time = 0.76

Courant Number mean: 0.219057 max: 0.840363
smoothSolver:  Solving for Ux, Initial residual = 0.000350961, Final residual = 1.81902e-06, No Iterations 2
smoothSolver:  Solving for Uy, Initial residual = 0.000341271, Final residual = 1.78014e-06, No Iterations 2
DICPCG:  Solving for p, Initial residual = 0.000536741, Final residual = 7.59366e-07, No Iterations 15
time step continuity errors : sum local = 5.88571e-09, global = -2.48154e-22, cumulative = -1.90268e-18
DICPCG:  Solving for p, Initial residual = 0.000192636, Final residual = 9.74863e-07, No Iterations 13
time step continuity errors : sum local = 7.73305e-09, global = 2.06878e-19, cumulative = -1.6958e-18
ExecutionTime = 0.07 s  ClockTime = 0 s

Time = 0.765

Courant Number mean: 0.219109 max: 0.840299
smoothSolver:  Solving for Ux, Initial residual = 0.000338651, Final residual = 1.76643e-06, No Iterations 2
smoothSolver:  Solving for Uy, Initial residual = 0.000328796, Final residual = 1.72227e-06, No Iterations 2
DICPCG:  Solving for p, Initial residual = 0.000511232, Final residual = 4.62565e-07, No Iterations 26
time step continuity errors : sum local = 3.3302e-09, global = 8.33964e-19, cumulative = -8.61839e-19
DICPCG:  Solving for p, Initial residual = 0.000183088, Final residual = 7.60835e-07, No Iterations 14
time step continuity errors : sum local = 7.14657e-09, global = -4.56604e-20, cumulative = -9.075e-19
ExecutionTime = 0.07 s  ClockTime = 0 s

Time = 0.77

Courant Number mean: 0.219162 max: 0.840239
smoothSolver:  Solving for Ux, Initial residual = 0.000326646, Final residual = 1.71591e-06, No Iterations 2
smoothSolver:  Solving for Uy, Initial residual = 0.000317665, Final residual = 1.67262e-06, No Iterations 2
DICPCG:  Solving for p, Initial residual = 0.000489029, Final residual = 8.36171e-07, No Iterations 15
time step continuity errors : sum local = 8.05489e-09, global = 2.15232e-19, cumulative = -6.92267e-19
DICPCG:  Solving for p, Initial residual = 0.00017381, Final residual = 9.28393e-07, No Iterations 13
time step continuity errors : sum local = 7.78641e-09, global = 3.64538e-19, cumulative = -3.27729e-19
ExecutionTime = 0.07 s  ClockTime = 0 s

Time = 0.775

Courant Number mean: 0.219215 max: 0.840185
smoothSolver:  Solving for Ux, Initial residual = 0.000315519, Final residual = 1.66821e-06, No Iterations 2
smoothSolver:  Solving for Uy, Initial residual = 0.000307645, Final residual = 1.6275e-06, No Iterations 2
DICPCG:  Solving for p, Initial residual = 0.000460356, Final residual = 4.24412e-07, No Iterations 26
time step continuity errors : sum local = 3.05006e-09, global = -1.24094e-18, cumulative = -1.56867e-18
DICPCG:  Solving for p, Initial residual = 0.000166311, Final residual = 7.76693e-07, No Iterations 24
time step continuity errors : sum local = 5.63811e-09, global = 7.0666e-19, cumulative = -8.62005e-19
ExecutionTime = 0.07 s  ClockTime = 0 s

Time = 0.78

Courant Number mean: 0.219267 max: 0.840135
smoothSolver:  Solving for Ux, Initial residual = 0.000304618, Final residual = 1.62105e-06, No Iterations 2
smoothSolver:  Solving for Uy, Initial residual = 0.000298641, Final residual = 1.58744e-06, No Iterations 2
DICPCG:  Solving for p, Initial residual = 0.000439635, Final residual = 4.11517e-07, No Iterations 26
time step continuity errors : sum local = 2.96007e-09, global = -1.19188e-18, cumulative = -2.05389e-18
DICPCG:  Solving for p, Initial residual = 0.000158421, Final residual = 8.82273e-07, No Iterations 14
time step continuity errors : sum local = 8.63473e-09, global = 1.22754e-19, cumulative = -1.93114e-18
ExecutionTime = 0.08 s  ClockTime = 0 s

Time = 0.785

Courant Number mean: 0.21932 max: 0.840088
smoothSolver:  Solving for Ux, Initial residual = 0.000294244, Final residual = 1.57551e-06, No Iterations 2
smoothSolver:  Solving for Uy, Initial residual = 0.000290253, Final residual = 1.54916e-06, No Iterations 2
DICPCG:  Solving for p, Initial residual = 0.000416029, Final residual = 8.33589e-07, No Iterations 15
time step continuity errors : sum local = 8.35129e-09, global = -5.47015e-19, cumulative = -2.47815e-18
DICPCG:  Solving for p, Initial residual = 0.00015065, Final residual = 8.32243e-07, No Iterations 13
time step continuity errors : sum local = 7.16329e-09, global = 4.79599e-19, cumulative = -1.99855e-18
ExecutionTime = 0.08 s  ClockTime = 0 s

Time = 0.79

Courant Number mean: 0.219373 max: 0.840046
smoothSolver:  Solving for Ux, Initial residual = 0.000284477, Final residual = 1.53241e-06, No Iterations 2
smoothSolver:  Solving for Uy, Initial residual = 0.000281901, Final residual = 1.51092e-06, No Iterations 2
DICPCG:  Solving for p, Initial residual = 0.000395941, Final residual = 3.79154e-07, No Iterations 26
time step continuity errors : sum local = 2.72106e-09, global = -6.84657e-19, cumulative = -2.68321e-18
DICPCG:  Solving for p, Initial residual = 0.000143564, Final residual = 9.7422e-07, No Iterations 23
time step continuity errors : sum local = 7.0682e-09, global = 2.09277e-19, cumulative = -2.47393e-18
ExecutionTime = 0.08 s  ClockTime = 0 s

Time = 0.795

Courant Number mean: 0.219426 max: 0.840007
smoothSolver:  Solving for Ux, Initial residual = 0.000274876, Final residual = 1.4892e-06, No Iterations 2
smoothSolver:  Solving for Uy, Initial residual = 0.00027425, Final residual = 1.47519e-06, No Iterations 2
DICPCG:  Solving for p, Initial residual = 0.000377233, Final residual = 9.80467e-07, No Iterations 25
time step continuity errors : sum local = 7.07746e-09, global = 5.38495e-19, cumulative = -1.93544e-18
DICPCG:  Solving for p, Initial residual = 0.000136769, Final residual = 9.42817e-07, No Iterations 23
time step continuity errors : sum local = 6.85973e-09, global = -3.0432e-19, cumulative = -2.23976e-18
ExecutionTime = 0.08 s  ClockTime = 0 s

Time = 0.8

Courant Number mean: 0.219478 max: 0.839971
smoothSolver:  Solving for Ux, Initial residual = 0.000265741, Final residual = 1.44791e-06, No Iterations 2
smoothSolver:  Solving for Uy, Initial residual = 0.000266872, Final residual = 1.44044e-06, No Iterations 2
DICPCG:  Solving for p, Initial residual = 0.000362595, Final residual = 9.48428e-07, No Iterations 25
time step continuity errors : sum local = 6.84812e-09, global = -6.30808e-19, cumulative = -2.87056e-18
DICPCG:  Solving for p, Initial residual = 0.000131072, Final residual = 9.22555e-07, No Iterations 23
time step continuity errors : sum local = 6.70203e-09, global = 4.53874e-19, cumulative = -2.41669e-18
ExecutionTime = 0.08 s  ClockTime = 0 s

Time = 0.805

Courant Number mean: 0.219529 max: 0.839939
smoothSolver:  Solving for Ux, Initial residual = 0.000256959, Final residual = 1.40836e-06, No Iterations 2
smoothSolver:  Solving for Uy, Initial residual = 0.000259962, Final residual = 1.40797e-06, No Iterations 2
DICPCG:  Solving for p, Initial residual = 0.000343411, Final residual = 8.9517e-07, No Iterations 25
time step continuity errors : sum local = 6.46326e-09, global = 7.21301e-20, cumulative = -2.34456e-18
DICPCG:  Solving for p, Initial residual = 0.000124925, Final residual = 8.92815e-07, No Iterations 23
time step continuity errors : sum local = 6.47972e-09, global = 4.15658e-19, cumulative = -1.9289e-18
ExecutionTime = 0.09 s  ClockTime = 0 s

Time = 0.81

Courant Number mean: 0.219581 max: 0.839909
smoothSolver:  Solving for Ux, Initial residual = 0.000248481, Final residual = 1.37007e-06, No Iterations 2
smoothSolver:  Solving for Uy, Initial residual = 0.00025344, Final residual = 1.37707e-06, No Iterations 2
DICPCG:  Solving for p, Initial residual = 0.000327613, Final residual = 8.54443e-07, No Iterations 25
time step continuity errors : sum local = 6.16838e-09, global = -2.10104e-20, cumulative = -1.94991e-18
DICPCG:  Solving for p, Initial residual = 0.000119616, Final residual = 8.67988e-07, No Iterations 23
time step continuity errors : sum local = 6.29403e-09, global = -2.87363e-19, cumulative = -2.23728e-18
ExecutionTime = 0.09 s  ClockTime = 0 s

Time = 0.815

Courant Number mean: 0.219632 max: 0.839881
smoothSolver:  Solving for Ux, Initial residual = 0.000240533, Final residual = 1.33283e-06, No Iterations 2
smoothSolver:  Solving for Uy, Initial residual = 0.000247367, Final residual = 1.34719e-06, No Iterations 2
DICPCG:  Solving for p, Initial residual = 0.000313565, Final residual = 8.17033e-07, No Iterations 25
time step continuity errors : sum local = 5.89735e-09, global = -3.58252e-19, cumulative = -2.59553e-18
DICPCG:  Solving for p, Initial residual = 0.000114754, Final residual = 8.45611e-07, No Iterations 23
time step continuity errors : sum local = 6.12668e-09, global = -7.70932e-19, cumulative = -3.36646e-18
ExecutionTime = 0.09 s  ClockTime = 0 s

Time = 0.82

Courant Number mean: 0.219682 max: 0.839856
smoothSolver:  Solving for Ux, Initial residual = 0.000232991, Final residual = 1.29659e-06, No Iterations 2
smoothSolver:  Solving for Uy, Initial residual = 0.000241733, Final residual = 1.31825e-06, No Iterations 2
DICPCG:  Solving for p, Initial residual = 0.000300469, Final residual = 7.81544e-07, No Iterations 25
time step continuity errors : sum local = 5.64029e-09, global = 4.25171e-19, cumulative = -2.94129e-18
DICPCG:  Solving for p, Initial residual = 0.000110169, Final residual = 8.23792e-07, No Iterations 23
time step continuity errors : sum local = 5.96387e-09, global = -1.85785e-19, cumulative = -3.12707e-18
ExecutionTime = 0.09 s  ClockTime = 0 s

Time = 0.825

Courant Number mean: 0.219732 max: 0.839833
smoothSolver:  Solving for Ux, Initial residual = 0.000225816, Final residual = 1.26123e-06, No Iterations 2
smoothSolver:  Solving for Uy, Initial residual = 0.000236278, Final residual = 1.28989e-06, No Iterations 2
DICPCG:  Solving for p, Initial residual = 0.000288526, Final residual = 7.47846e-07, No Iterations 25
time step continuity errors : sum local = 5.39619e-09, global = -9.00055e-19, cumulative = -4.02713e-18
DICPCG:  Solving for p, Initial residual = 0.000105922, Final residual = 8.00333e-07, No Iterations 23
time step continuity errors : sum local = 5.78987e-09, global = -1.57793e-18, cumulative = -5.60506e-18
ExecutionTime = 0.09 s  ClockTime = 0 s

Time = 0.83

Courant Number mean: 0.219781 max: 0.839813
smoothSolver:  Solving for Ux, Initial residual = 0.000218888, Final residual = 1.22681e-06, No Iterations 2
smoothSolver:  Solving for Uy, Initial residual = 0.000231006, Final residual = 1.26202e-06, No Iterations 2
DICPCG:  Solving for p, Initial residual = 0.000277546, Final residual = 7.16155e-07, No Iterations 25
time step continuity errors : sum local = 5.1666e-09, global = 1.97862e-19, cumulative = -5.4072e-18
DICPCG:  Solving for p, Initial residual = 0.000101967, Final residual = 7.76508e-07, No Iterations 23
time step continuity errors : sum local = 5.61375e-09, global = 7.1882e-20, cumulative = -5.33531e-18
ExecutionTime = 0.09 s  ClockTime = 0 s

Time = 0.835

Courant Number mean: 0.219829 max: 0.839794
smoothSolver:  Solving for Ux, Initial residual = 0.000212263, Final residual = 1.19335e-06, No Iterations 2
smoothSolver:  Solving for Uy, Initial residual = 0.000225788, Final residual = 1.23438e-06, No Iterations 2
DICPCG:  Solving for p, Initial residual = 0.000267506, Final residual = 6.86869e-07, No Iterations 25
time step continuity errors : sum local = 4.95435e-09, global = -2.65111e-19, cumulative = -5.60043e-18
DICPCG:  Solving for p, Initial residual = 9.82015e-05, Final residual = 7.53402e-07, No Iterations 23
time step continuity errors : sum local = 5.44322e-09, global = -1.84296e-19, cumulative = -5.78472e-18
ExecutionTime = 0.09 s  ClockTime = 0 s

Time = 0.84

Courant Number mean: 0.219877 max: 0.839777
smoothSolver:  Solving for Ux, Initial residual = 0.000205863, Final residual = 1.16078e-06, No Iterations 2
smoothSolver:  Solving for Uy, Initial residual = 0.000220737, Final residual = 1.20704e-06, No Iterations 2
DICPCG:  Solving for p, Initial residual = 0.000258378, Final residual = 6.6005e-07, No Iterations 25
time step continuity errors : sum local = 4.75986e-09, global = -6.63399e-20, cumulative = -5.85106e-18
DICPCG:  Solving for p, Initial residual = 9.46908e-05, Final residual = 7.30029e-07, No Iterations 23
time step continuity errors : sum local = 5.27118e-09, global = 6.89041e-19, cumulative = -5.16202e-18
ExecutionTime = 0.1 s  ClockTime = 0 s

Time = 0.845

Courant Number mean: 0.219925 max: 0.839762
smoothSolver:  Solving for Ux, Initial residual = 0.000199698, Final residual = 1.12902e-06, No Iterations 2
smoothSolver:  Solving for Uy, Initial residual = 0.00021581, Final residual = 1.18022e-06, No Iterations 2
DICPCG:  Solving for p, Initial residual = 0.00024956, Final residual = 6.34417e-07, No Iterations 25
time step continuity errors : sum local = 4.57389e-09, global = 9.30992e-19, cumulative = -4.23103e-18
DICPCG:  Solving for p, Initial residual = 9.14013e-05, Final residual = 7.06314e-07, No Iterations 23
time step continuity errors : sum local = 5.09718e-09, global = -7.06578e-19, cumulative = -4.93761e-18
ExecutionTime = 0.1 s  ClockTime = 0 s

Time = 0.85

Courant Number mean: 0.219971 max: 0.839748
smoothSolver:  Solving for Ux, Initial residual = 0.000193868, Final residual = 1.09819e-06, No Iterations 2
smoothSolver:  Solving for Uy, Initial residual = 0.000210961, Final residual = 1.15374e-06, No Iterations 2
DICPCG:  Solving for p, Initial residual = 0.000241469, Final residual = 6.06997e-07, No Iterations 25
time step continuity errors : sum local = 4.37496e-09, global = 1.31472e-18, cumulative = -3.62289e-18
DICPCG:  Solving for p, Initial residual = 8.87359e-05, Final residual = 6.85571e-07, No Iterations 23
time step continuity errors : sum local = 4.94537e-09, global = -1.68224e-18, cumulative = -5.30512e-18
ExecutionTime = 0.1 s  ClockTime = 0 s

Time = 0.855

Courant Number mean: 0.220017 max: 0.839735
smoothSolver:  Solving for Ux, Initial residual = 0.000188306, Final residual = 1.06828e-06, No Iterations 2
smoothSolver:  Solving for Uy, Initial residual = 0.000206211, Final residual = 1.12749e-06, No Iterations 2
DICPCG:  Solving for p, Initial residual = 0.000232347, Final residual = 5.8145e-07, No Iterations 25
time step continuity errors : sum local = 4.18975e-09, global = -2.05141e-20, cumulative = -5.32564e-18
DICPCG:  Solving for p, Initial residual = 8.55888e-05, Final residual = 6.60808e-07, No Iterations 23
time step continuity errors : sum local = 4.7643e-09, global = -1.0602e-18, cumulative = -6.38583e-18
ExecutionTime = 0.1 s  ClockTime = 0 s

Time = 0.86

Courant Number mean: 0.220062 max: 0.839724
smoothSolver:  Solving for Ux, Initial residual = 0.000182941, Final residual = 1.03921e-06, No Iterations 2
smoothSolver:  Solving for Uy, Initial residual = 0.000201549, Final residual = 1.10173e-06, No Iterations 2
DICPCG:  Solving for p, Initial residual = 0.000224796, Final residual = 5.52021e-07, No Iterations 25
time step continuity errors : sum local = 3.97679e-09, global = 4.72899e-19, cumulative = -5.91294e-18
DICPCG:  Solving for p, Initial residual = 8.28289e-05, Final residual = 6.37948e-07, No Iterations 23
time step continuity errors : sum local = 4.59743e-09, global = -8.87565e-19, cumulative = -6.8005e-18
ExecutionTime = 0.1 s  ClockTime = 0 s

Time = 0.865

Courant Number mean: 0.220106 max: 0.839715
smoothSolver:  Solving for Ux, Initial residual = 0.000177823, Final residual = 1.01084e-06, No Iterations 2
smoothSolver:  Solving for Uy, Initial residual = 0.000196907, Final residual = 1.07608e-06, No Iterations 2
DICPCG:  Solving for p, Initial residual = 0.00021777, Final residual = 5.35925e-07, No Iterations 25
time step continuity errors : sum local = 3.85995e-09, global = -1.0841e-18, cumulative = -7.8846e-18
DICPCG:  Solving for p, Initial residual = 8.02699e-05, Final residual = 6.11664e-07, No Iterations 23
time step continuity errors : sum local = 4.40633e-09, global = 1.4426e-19, cumulative = -7.74034e-18
ExecutionTime = 0.1 s  ClockTime = 0 s

Time = 0.87

Courant Number mean: 0.22015 max: 0.839706
smoothSolver:  Solving for Ux, Initial residual = 0.000172867, Final residual = 9.83195e-07, No Iterations 2
smoothSolver:  Solving for Uy, Initial residual = 0.000192319, Final residual = 1.05094e-06, No Iterations 2
DICPCG:  Solving for p, Initial residual = 0.000211111, Final residual = 5.21544e-07, No Iterations 25
time step continuity errors : sum local = 3.75549e-09, global = 2.4865e-19, cumulative = -7.49169e-18
DICPCG:  Solving for p, Initial residual = 7.78343e-05, Final residual = 5.89252e-07, No Iterations 23
time step continuity errors : sum local = 4.24333e-09, global = -2.05472e-19, cumulative = -7.69716e-18
ExecutionTime = 0.1 s  ClockTime = 0 s

Time = 0.875

Courant Number mean: 0.220193 max: 0.839698
smoothSolver:  Solving for Ux, Initial residual = 0.000168108, Final residual = 9.56309e-07, No Iterations 2
smoothSolver:  Solving for Uy, Initial residual = 0.000187822, Final residual = 1.02622e-06, No Iterations 2
DICPCG:  Solving for p, Initial residual = 0.000204712, Final residual = 5.04511e-07, No Iterations 25
time step continuity errors : sum local = 3.63196e-09, global = 4.2848e-20, cumulative = -7.65432e-18
DICPCG:  Solving for p, Initial residual = 7.55115e-05, Final residual = 9.60164e-07, No Iterations 22
time step continuity errors : sum local = 6.95312e-09, global = -4.48332e-19, cumulative = -8.10265e-18
ExecutionTime = 0.1 s  ClockTime = 0 s

Time = 0.88

Courant Number mean: 0.220235 max: 0.839692
smoothSolver:  Solving for Ux, Initial residual = 0.00016354, Final residual = 9.30169e-07, No Iterations 2
smoothSolver:  Solving for Uy, Initial residual = 0.000183404, Final residual = 1.00176e-06, No Iterations 2
DICPCG:  Solving for p, Initial residual = 0.000198797, Final residual = 9.58056e-07, No Iterations 24
time step continuity errors : sum local = 6.89952e-09, global = -6.86146e-19, cumulative = -8.78879e-18
DICPCG:  Solving for p, Initial residual = 7.33057e-05, Final residual = 9.3302e-07, No Iterations 22
time step continuity errors : sum local = 6.76014e-09, global = -4.15493e-19, cumulative = -9.20429e-18
ExecutionTime = 0.1 s  ClockTime = 0 s

Time = 0.885

Courant Number mean: 0.220277 max: 0.839686
smoothSolver:  Solving for Ux, Initial residual = 0.000159085, Final residual = 9.0467e-07, No Iterations 2
smoothSolver:  Solving for Uy, Initial residual = 0.000179088, Final residual = 9.77755e-07, No Iterations 2
DICPCG:  Solving for p, Initial residual = 0.000193005, Final residual = 9.26134e-07, No Iterations 24
time step continuity errors : sum local = 6.66852e-09, global = -2.38228e-19, cumulative = -9.44251e-18
DICPCG:  Solving for p, Initial residual = 7.11992e-05, Final residual = 8.62938e-07, No Iterations 22
time step continuity errors : sum local = 6.24944e-09, global = 2.9307e-19, cumulative = -9.14944e-18
ExecutionTime = 0.11 s  ClockTime = 0 s

Time = 0.89

Courant Number mean: 0.220317 max: 0.839681
smoothSolver:  Solving for Ux, Initial residual = 0.000154751, Final residual = 8.79813e-07, No Iterations 2
smoothSolver:  Solving for Uy, Initial residual = 0.000174825, Final residual = 9.53999e-07, No Iterations 2
DICPCG:  Solving for p, Initial residual = 0.000193837, Final residual = 9.10786e-07, No Iterations 24
time step continuity errors : sum local = 6.55824e-09, global = 1.16798e-19, cumulative = -9.03265e-18
DICPCG:  Solving for p, Initial residual = 7.01762e-05, Final residual = 8.36758e-07, No Iterations 22
time step continuity errors : sum local = 6.06465e-09, global = 1.03654e-18, cumulative = -7.99611e-18
ExecutionTime = 0.11 s  ClockTime = 0 s

Time = 0.895

Courant Number mean: 0.220357 max: 0.839677
smoothSolver:  Solving for Ux, Initial residual = 0.000150548, Final residual = 8.55668e-07, No Iterations 2
smoothSolver:  Solving for Uy, Initial residual = 0.000170665, Final residual = 9.30552e-07, No Iterations 2
DICPCG:  Solving for p, Initial residual = 0.00018502, Final residual = 8.54653e-07, No Iterations 24
time step continuity errors : sum local = 6.15167e-09, global = 7.38755e-19, cumulative = -7.25735e-18
DICPCG:  Solving for p, Initial residual = 6.72966e-05, Final residual = 7.97674e-07, No Iterations 22
time step continuity errors : sum local = 5.78053e-09, global = -1.9174e-19, cumulative = -7.44909e-18
ExecutionTime = 0.11 s  ClockTime = 0 s

Time = 0.9

Courant Number mean: 0.220396 max: 0.839674
smoothSolver:  Solving for Ux, Initial residual = 0.00014647, Final residual = 8.32146e-07, No Iterations 2
smoothSolver:  Solving for Uy, Initial residual = 0.000166573, Final residual = 9.07686e-07, No Iterations 2
DICPCG:  Solving for p, Initial residual = 0.000179889, Final residual = 8.21615e-07, No Iterations 24
time step continuity errors : sum local = 5.91278e-09, global = 2.58825e-19, cumulative = -7.19027e-18
DICPCG:  Solving for p, Initial residual = 6.52675e-05, Final residual = 7.68527e-07, No Iterations 22
time step continuity errors : sum local = 5.57097e-09, global = -9.87985e-19, cumulative = -8.17825e-18
ExecutionTime = 0.12 s  ClockTime = 0 s

Time = 0.905

Courant Number mean: 0.220435 max: 0.839671
smoothSolver:  Solving for Ux, Initial residual = 0.000142511, Final residual = 8.0922e-07, No Iterations 2
smoothSolver:  Solving for Uy, Initial residual = 0.000162559, Final residual = 8.8518e-07, No Iterations 2
DICPCG:  Solving for p, Initial residual = 0.00017606, Final residual = 7.92953e-07, No Iterations 24
time step continuity errors : sum local = 5.70603e-09, global = -5.34772e-19, cumulative = -8.71302e-18
DICPCG:  Solving for p, Initial residual = 6.34648e-05, Final residual = 7.27033e-07, No Iterations 22
time step continuity errors : sum local = 5.27248e-09, global = 1.11587e-19, cumulative = -8.60144e-18
ExecutionTime = 0.12 s  ClockTime = 0 s

Time = 0.91

Courant Number mean: 0.220473 max: 0.839669
smoothSolver:  Solving for Ux, Initial residual = 0.00013866, Final residual = 7.86884e-07, No Iterations 2
smoothSolver:  Solving for Uy, Initial residual = 0.000158609, Final residual = 8.63007e-07, No Iterations 2
DICPCG:  Solving for p, Initial residual = 0.000172954, Final residual = 7.64879e-07, No Iterations 24
time step continuity errors : sum local = 5.50403e-09, global = 3.43942e-19, cumulative = -8.2575e-18
DICPCG:  Solving for p, Initial residual = 6.17363e-05, Final residual = 7.05348e-07, No Iterations 22
time step continuity errors : sum local = 5.11836e-09, global = 7.81189e-19, cumulative = -7.47631e-18
ExecutionTime = 0.12 s  ClockTime = 0 s

Time = 0.915

Courant Number mean: 0.22051 max: 0.839667
smoothSolver:  Solving for Ux, Initial residual = 0.000134927, Final residual = 7.65183e-07, No Iterations 2
smoothSolver:  Solving for Uy, Initial residual = 0.000154748, Final residual = 8.41153e-07, No Iterations 2
DICPCG:  Solving for p, Initial residual = 0.000171045, Final residual = 7.29798e-07, No Iterations 24
time step continuity errors : sum local = 5.25267e-09, global = 5.30967e-19, cumulative = -6.94534e-18
DICPCG:  Solving for p, Initial residual = 6.00557e-05, Final residual = 6.636e-07, No Iterations 22
time step continuity errors : sum local = 4.81818e-09, global = 4.81915e-19, cumulative = -6.46342e-18
ExecutionTime = 0.12 s  ClockTime = 0 s

Time = 0.92

Courant Number mean: 0.220546 max: 0.839666
smoothSolver:  Solving for Ux, Initial residual = 0.0001313, Final residual = 9.84894e-06, No Iterations 1
smoothSolver:  Solving for Uy, Initial residual = 0.000150942, Final residual = 8.19694e-07, No Iterations 2
DICPCG:  Solving for p, Initial residual = 0.000152809, Final residual = 6.37343e-07, No Iterations 23
time step continuity errors : sum local = 4.6898e-09, global = -4.86382e-20, cumulative = -6.51206e-18
DICPCG:  Solving for p, Initial residual = 5.53963e-05, Final residual = 9.70107e-07, No Iterations 11
time step continuity errors : sum local = 8.97458e-09, global = 1.78754e-19, cumulative = -6.33331e-18
ExecutionTime = 0.12 s  ClockTime = 0 s

Time = 0.925

Courant Number mean: 0.220581 max: 0.839666
smoothSolver:  Solving for Ux, Initial residual = 0.000127887, Final residual = 9.58867e-06, No Iterations 1
smoothSolver:  Solving for Uy, Initial residual = 0.00014718, Final residual = 7.98418e-07, No Iterations 2
DICPCG:  Solving for p, Initial residual = 0.000147223, Final residual = 7.80097e-07, No Iterations 22
time step continuity errors : sum local = 5.74944e-09, global = -2.52869e-19, cumulative = -6.58618e-18
DICPCG:  Solving for p, Initial residual = 5.38722e-05, Final residual = 7.91098e-07, No Iterations 11
time step continuity errors : sum local = 6.52675e-09, global = -1.2033e-18, cumulative = -7.78948e-18
ExecutionTime = 0.12 s  ClockTime = 0 s

Time = 0.93

Courant Number mean: 0.220615 max: 0.839666
smoothSolver:  Solving for Ux, Initial residual = 0.000124402, Final residual = 9.32374e-06, No Iterations 1
smoothSolver:  Solving for Uy, Initial residual = 0.000143638, Final residual = 7.7844e-07, No Iterations 2
DICPCG:  Solving for p, Initial residual = 0.000142705, Final residual = 8.44204e-07, No Iterations 21
time step continuity errors : sum local = 6.22347e-09, global = -9.74419e-19, cumulative = -8.7639e-18
DICPCG:  Solving for p, Initial residual = 5.23807e-05, Final residual = 8.54213e-07, No Iterations 11
time step continuity errors : sum local = 7.75531e-09, global = -1.27775e-18, cumulative = -1.00416e-17
ExecutionTime = 0.12 s  ClockTime = 0 s

Time = 0.935

Courant Number mean: 0.220649 max: 0.839666
smoothSolver:  Solving for Ux, Initial residual = 0.000121136, Final residual = 9.07603e-06, No Iterations 1
smoothSolver:  Solving for Uy, Initial residual = 0.00014002, Final residual = 7.58034e-07, No Iterations 2
DICPCG:  Solving for p, Initial residual = 0.000138807, Final residual = 8.39027e-07, No Iterations 20
time step continuity errors : sum local = 6.03806e-09, global = -5.91269e-19, cumulative = -1.06329e-17
DICPCG:  Solving for p, Initial residual = 5.10344e-05, Final residual = 7.61198e-07, No Iterations 11
time step continuity errors : sum local = 6.39584e-09, global = 4.13342e-19, cumulative = -1.02196e-17
ExecutionTime = 0.12 s  ClockTime = 0 s

Time = 0.94

Courant Number mean: 0.220682 max: 0.839667
smoothSolver:  Solving for Ux, Initial residual = 0.000117866, Final residual = 8.82852e-06, No Iterations 1
smoothSolver:  Solving for Uy, Initial residual = 0.000136565, Final residual = 9.99993e-06, No Iterations 1
DICPCG:  Solving for p, Initial residual = 0.000132453, Final residual = 7.87896e-07, No Iterations 23
time step continuity errors : sum local = 5.70343e-09, global = 9.91955e-19, cumulative = -9.22761e-18
DICPCG:  Solving for p, Initial residual = 4.36913e-05, Final residual = 8.0314e-07, No Iterations 19
time step continuity errors : sum local = 5.98099e-09, global = -1.16657e-18, cumulative = -1.03942e-17
ExecutionTime = 0.12 s  ClockTime = 0 s

Time = 0.945

Courant Number mean: 0.220715 max: 0.839668
smoothSolver:  Solving for Ux, Initial residual = 0.000114699, Final residual = 8.58868e-06, No Iterations 1
smoothSolver:  Solving for Uy, Initial residual = 0.000133238, Final residual = 9.75177e-06, No Iterations 1
DICPCG:  Solving for p, Initial residual = 0.000129695, Final residual = 6.92221e-07, No Iterations 23
time step continuity errors : sum local = 5.02388e-09, global = -9.07996e-19, cumulative = -1.13022e-17
DICPCG:  Solving for p, Initial residual = 4.28248e-05, Final residual = 6.74636e-07, No Iterations 19
time step continuity errors : sum local = 4.98444e-09, global = 1.05168e-18, cumulative = -1.02505e-17
ExecutionTime = 0.12 s  ClockTime = 0 s

Time = 0.95

Courant Number mean: 0.220746 max: 0.839669
smoothSolver:  Solving for Ux, Initial residual = 0.000111664, Final residual = 8.35899e-06, No Iterations 1
smoothSolver:  Solving for Uy, Initial residual = 0.000129885, Final residual = 9.50207e-06, No Iterations 1
DICPCG:  Solving for p, Initial residual = 0.000125934, Final residual = 6.80761e-07, No Iterations 23
time step continuity errors : sum local = 4.93976e-09, global = -2.64698e-21, cumulative = -1.02532e-17
DICPCG:  Solving for p, Initial residual = 4.16334e-05, Final residual = 6.70568e-07, No Iterations 19
time step continuity errors : sum local = 4.96572e-09, global = 1.16401e-18, cumulative = -9.08914e-18
ExecutionTime = 0.12 s  ClockTime = 0 s

Time = 0.955

Courant Number mean: 0.220777 max: 0.83967
smoothSolver:  Solving for Ux, Initial residual = 0.000108702, Final residual = 8.1353e-06, No Iterations 1
smoothSolver:  Solving for Uy, Initial residual = 0.000126629, Final residual = 9.25962e-06, No Iterations 1
DICPCG:  Solving for p, Initial residual = 0.000122656, Final residual = 9.59686e-07, No Iterations 22
time step continuity errors : sum local = 7.0266e-09, global = -5.52722e-19, cumulative = -9.64187e-18
DICPCG:  Solving for p, Initial residual = 4.06747e-05, Final residual = 5.58597e-07, No Iterations 19
time step continuity errors : sum local = 4.1039e-09, global = -2.4195e-19, cumulative = -9.88382e-18
ExecutionTime = 0.12 s  ClockTime = 0 s

Time = 0.96

Courant Number mean: 0.220808 max: 0.839672
smoothSolver:  Solving for Ux, Initial residual = 0.000105825, Final residual = 7.91844e-06, No Iterations 1
smoothSolver:  Solving for Uy, Initial residual = 0.000123429, Final residual = 9.02148e-06, No Iterations 1
DICPCG:  Solving for p, Initial residual = 0.000119373, Final residual = 8.99664e-07, No Iterations 22
time step continuity errors : sum local = 6.59115e-09, global = 7.36191e-20, cumulative = -9.8102e-18
DICPCG:  Solving for p, Initial residual = 3.96199e-05, Final residual = 5.33191e-07, No Iterations 19
time step continuity errors : sum local = 3.91225e-09, global = 1.24515e-18, cumulative = -8.56504e-18
ExecutionTime = 0.13 s  ClockTime = 0 s

Time = 0.965

Courant Number mean: 0.220838 max: 0.839674
smoothSolver:  Solving for Ux, Initial residual = 0.000103015, Final residual = 7.70711e-06, No Iterations 1
smoothSolver:  Solving for Uy, Initial residual = 0.000120303, Final residual = 8.78919e-06, No Iterations 1
DICPCG:  Solving for p, Initial residual = 0.000116252, Final residual = 8.03334e-07, No Iterations 22
time step continuity errors : sum local = 5.89177e-09, global = 1.06036e-18, cumulative = -7.50468e-18
DICPCG:  Solving for p, Initial residual = 3.86087e-05, Final residual = 4.9707e-07, No Iterations 19
time step continuity errors : sum local = 3.63454e-09, global = -4.29307e-19, cumulative = -7.93399e-18
ExecutionTime = 0.13 s  ClockTime = 0 s

Time = 0.97

Courant Number mean: 0.220867 max: 0.839676
smoothSolver:  Solving for Ux, Initial residual = 0.000100277, Final residual = 7.50156e-06, No Iterations 1
smoothSolver:  Solving for Uy, Initial residual = 0.000117238, Final residual = 8.56175e-06, No Iterations 1
DICPCG:  Solving for p, Initial residual = 0.000119104, Final residual = 6.56846e-07, No Iterations 23
time step continuity errors : sum local = 4.76738e-09, global = 3.64621e-19, cumulative = -7.56936e-18
DICPCG:  Solving for p, Initial residual = 3.76438e-05, Final residual = 6.34892e-07, No Iterations 19
time step continuity errors : sum local = 4.69301e-09, global = 1.63757e-18, cumulative = -5.93179e-18
ExecutionTime = 0.13 s  ClockTime = 0 s

Time = 0.975

Courant Number mean: 0.220895 max: 0.839679
smoothSolver:  Solving for Ux, Initial residual = 9.75973e-05, Final residual = 7.30022e-06, No Iterations 1
smoothSolver:  Solving for Uy, Initial residual = 0.000114279, Final residual = 8.34238e-06, No Iterations 1
DICPCG:  Solving for p, Initial residual = 0.00011472, Final residual = 9.60247e-07, No Iterations 20
time step continuity errors : sum local = 7.08375e-09, global = 6.53969e-19, cumulative = -5.27783e-18
DICPCG:  Solving for p, Initial residual = 3.68127e-05, Final residual = 4.36588e-07, No Iterations 19
time step continuity errors : sum local = 3.12744e-09, global = -4.97218e-19, cumulative = -5.77504e-18
ExecutionTime = 0.13 s  ClockTime = 0 s

Time = 0.98

Courant Number mean: 0.220923 max: 0.839681
smoothSolver:  Solving for Ux, Initial residual = 9.49964e-05, Final residual = 7.10531e-06, No Iterations 1
smoothSolver:  Solving for Uy, Initial residual = 0.000111347, Final residual = 8.12502e-06, No Iterations 1
DICPCG:  Solving for p, Initial residual = 0.000108153, Final residual = 8.11478e-07, No Iterations 20
time step continuity errors : sum local = 5.97453e-09, global = 2.59735e-20, cumulative = -5.74907e-18
DICPCG:  Solving for p, Initial residual = 3.57636e-05, Final residual = 9.76826e-07, No Iterations 11
time step continuity errors : sum local = 9.88682e-09, global = 2.85377e-19, cumulative = -5.46369e-18
ExecutionTime = 0.13 s  ClockTime = 0 s

Time = 0.985

Courant Number mean: 0.22095 max: 0.839684
smoothSolver:  Solving for Ux, Initial residual = 9.23601e-05, Final residual = 6.90682e-06, No Iterations 1
smoothSolver:  Solving for Uy, Initial residual = 0.000108607, Final residual = 7.92137e-06, No Iterations 1
DICPCG:  Solving for p, Initial residual = 0.000106628, Final residual = 9.91817e-07, No Iterations 12
time step continuity errors : sum local = 9.66202e-09, global = 6.21047e-19, cumulative = -4.84265e-18
DICPCG:  Solving for p, Initial residual = 3.5107e-05, Final residual = 6.01936e-07, No Iterations 11
time step continuity errors : sum local = 5.81129e-09, global = 5.12604e-19, cumulative = -4.33004e-18
ExecutionTime = 0.13 s  ClockTime = 0 s

Time = 0.99

Courant Number mean: 0.220976 max: 0.839687
smoothSolver:  Solving for Ux, Initial residual = 9.0106e-05, Final residual = 6.73697e-06, No Iterations 1
smoothSolver:  Solving for Uy, Initial residual = 0.000105561, Final residual = 7.69588e-06, No Iterations 1
DICPCG:  Solving for p, Initial residual = 0.00010312, Final residual = 6.84065e-07, No Iterations 20
time step continuity errors : sum local = 5.00936e-09, global = 1.68745e-19, cumulative = -4.1613e-18
DICPCG:  Solving for p, Initial residual = 3.40697e-05, Final residual = 9.67627e-07, No Iterations 18
time step continuity errors : sum local = 6.90137e-09, global = 4.53212e-19, cumulative = -3.70809e-18
ExecutionTime = 0.13 s  ClockTime = 0 s

Time = 0.995

Courant Number mean: 0.221002 max: 0.83969
smoothSolver:  Solving for Ux, Initial residual = 8.7603e-05, Final residual = 6.54815e-06, No Iterations 1
smoothSolver:  Solving for Uy, Initial residual = 0.000102938, Final residual = 7.50245e-06, No Iterations 1
DICPCG:  Solving for p, Initial residual = 0.000100441, Final residual = 6.73117e-07, No Iterations 20
time step continuity errors : sum local = 4.93354e-09, global = -3.88361e-19, cumulative = -4.09645e-18
DICPCG:  Solving for p, Initial residual = 3.31825e-05, Final residual = 8.39795e-07, No Iterations 11
time step continuity errors : sum local = 8.48453e-09, global = -2.01915e-19, cumulative = -4.29836e-18
ExecutionTime = 0.13 s  ClockTime = 0 s

Time = 1

Courant Number mean: 0.221028 max: 0.839693
smoothSolver:  Solving for Ux, Initial residual = 8.52109e-05, Final residual = 6.3675e-06, No Iterations 1
smoothSolver:  Solving for Uy, Initial residual = 0.000100339, Final residual = 7.30989e-06, No Iterations 1
DICPCG:  Solving for p, Initial residual = 9.8026e-05, Final residual = 7.49024e-07, No Iterations 20
time step continuity errors : sum local = 5.56552e-09, global = -6.73408e-19, cumulative = -4.97177e-18
DICPCG:  Solving for p, Initial residual = 3.25425e-05, Final residual = 5.67309e-07, No Iterations 11
time step continuity errors : sum local = 5.44271e-09, global = -1.95876e-19, cumulative = -5.16765e-18
ExecutionTime = 0.14 s  ClockTime = 0 s

Time = 1.005

Courant Number mean: 0.221052 max: 0.839696
smoothSolver:  Solving for Ux, Initial residual = 8.3051e-05, Final residual = 6.20461e-06, No Iterations 1
smoothSolver:  Solving for Uy, Initial residual = 9.759e-05, Final residual = 7.10753e-06, No Iterations 1
DICPCG:  Solving for p, Initial residual = 9.50408e-05, Final residual = 5.27505e-07, No Iterations 20
time step continuity errors : sum local = 3.8333e-09, global = 6.98223e-19, cumulative = -4.46942e-18
DICPCG:  Solving for p, Initial residual = 3.1501e-05, Final residual = 8.03957e-07, No Iterations 11
time step continuity errors : sum local = 8.09081e-09, global = -8.19736e-20, cumulative = -4.5514e-18
ExecutionTime = 0.14 s  ClockTime = 0 s

Time = 1.01

Courant Number mean: 0.221077 max: 0.839699
smoothSolver:  Solving for Ux, Initial residual = 8.07954e-05, Final residual = 6.03332e-06, No Iterations 1
smoothSolver:  Solving for Uy, Initial residual = 9.51024e-05, Final residual = 6.92425e-06, No Iterations 1
DICPCG:  Solving for p, Initial residual = 9.273e-05, Final residual = 5.86569e-07, No Iterations 20
time step continuity errors : sum local = 4.31216e-09, global = 8.07742e-19, cumulative = -3.74365e-18
DICPCG:  Solving for p, Initial residual = 3.0878e-05, Final residual = 5.98141e-07, No Iterations 11
time step continuity errors : sum local = 5.88893e-09, global = 5.15168e-19, cumulative = -3.22849e-18
ExecutionTime = 0.14 s  ClockTime = 0 s

Time = 1.015

Courant Number mean: 0.2211 max: 0.839703
smoothSolver:  Solving for Ux, Initial residual = 7.87158e-05, Final residual = 5.87586e-06, No Iterations 1
smoothSolver:  Solving for Uy, Initial residual = 9.25345e-05, Final residual = 6.73511e-06, No Iterations 1
DICPCG:  Solving for p, Initial residual = 9.0057e-05, Final residual = 4.6715e-07, No Iterations 20
time step continuity errors : sum local = 3.37971e-09, global = -2.35498e-19, cumulative = -3.46398e-18
DICPCG:  Solving for p, Initial residual = 2.99654e-05, Final residual = 7.26118e-07, No Iterations 11
time step continuity errors : sum local = 7.29284e-09, global = 6.78288e-20, cumulative = -3.39616e-18
ExecutionTime = 0.14 s  ClockTime = 0 s

Time = 1.02

Courant Number mean: 0.221123 max: 0.839706
smoothSolver:  Solving for Ux, Initial residual = 7.65972e-05, Final residual = 5.71521e-06, No Iterations 1
smoothSolver:  Solving for Uy, Initial residual = 9.01349e-05, Final residual = 6.55855e-06, No Iterations 1
DICPCG:  Solving for p, Initial residual = 8.78425e-05, Final residual = 4.80005e-07, No Iterations 20
time step continuity errors : sum local = 3.4957e-09, global = 1.04969e-18, cumulative = -2.34646e-18
DICPCG:  Solving for p, Initial residual = 2.93197e-05, Final residual = 6.0342e-07, No Iterations 11
time step continuity errors : sum local = 5.98768e-09, global = 4.26825e-20, cumulative = -2.30378e-18
ExecutionTime = 0.14 s  ClockTime = 0 s

Time = 1.025

Courant Number mean: 0.221146 max: 0.839709
smoothSolver:  Solving for Ux, Initial residual = 7.45999e-05, Final residual = 5.56412e-06, No Iterations 1
smoothSolver:  Solving for Uy, Initial residual = 8.77138e-05, Final residual = 6.38048e-06, No Iterations 1
DICPCG:  Solving for p, Initial residual = 8.53943e-05, Final residual = 9.89559e-07, No Iterations 19
time step continuity errors : sum local = 7.08876e-09, global = 2.48154e-22, cumulative = -2.30353e-18
DICPCG:  Solving for p, Initial residual = 2.85027e-05, Final residual = 6.58275e-07, No Iterations 11
time step continuity errors : sum local = 6.60983e-09, global = -9.50431e-20, cumulative = -2.39858e-18
ExecutionTime = 0.14 s  ClockTime = 0 s

Time = 1.03

Courant Number mean: 0.221168 max: 0.839713
smoothSolver:  Solving for Ux, Initial residual = 7.26057e-05, Final residual = 5.41295e-06, No Iterations 1
smoothSolver:  Solving for Uy, Initial residual = 8.54106e-05, Final residual = 6.2111e-06, No Iterations 1
DICPCG:  Solving for p, Initial residual = 8.32819e-05, Final residual = 9.50857e-07, No Iterations 19
time step continuity errors : sum local = 6.81397e-09, global = 8.77556e-19, cumulative = -1.52102e-18
DICPCG:  Solving for p, Initial residual = 2.78313e-05, Final residual = 5.8704e-07, No Iterations 11
time step continuity errors : sum local = 5.85258e-09, global = 3.81082e-19, cumulative = -1.13994e-18
ExecutionTime = 0.14 s  ClockTime = 0 s

Time = 1.035

Courant Number mean: 0.221189 max: 0.839716
smoothSolver:  Solving for Ux, Initial residual = 7.07008e-05, Final residual = 5.26864e-06, No Iterations 1
smoothSolver:  Solving for Uy, Initial residual = 8.31232e-05, Final residual = 6.04289e-06, No Iterations 1
DICPCG:  Solving for p, Initial residual = 8.10371e-05, Final residual = 9.10522e-07, No Iterations 19
time step continuity errors : sum local = 6.51963e-09, global = 3.97543e-19, cumulative = -7.42395e-19
DICPCG:  Solving for p, Initial residual = 2.71059e-05, Final residual = 6.15048e-07, No Iterations 11
time step continuity errors : sum local = 6.16599e-09, global = -8.28669e-19, cumulative = -1.57106e-18
ExecutionTime = 0.14 s  ClockTime = 0 s

Time = 1.04

Courant Number mean: 0.22121 max: 0.83972
smoothSolver:  Solving for Ux, Initial residual = 6.88175e-05, Final residual = 5.12621e-06, No Iterations 1
smoothSolver:  Solving for Uy, Initial residual = 8.09243e-05, Final residual = 5.88125e-06, No Iterations 1
DICPCG:  Solving for p, Initial residual = 7.89996e-05, Final residual = 8.75365e-07, No Iterations 19
time step continuity errors : sum local = 6.26481e-09, global = 9.67801e-19, cumulative = -6.03263e-19
DICPCG:  Solving for p, Initial residual = 2.64553e-05, Final residual = 5.70295e-07, No Iterations 11
time step continuity errors : sum local = 5.69304e-09, global = -1.04804e-19, cumulative = -7.08066e-19
ExecutionTime = 0.14 s  ClockTime = 0 s

Time = 1.045

Courant Number mean: 0.221231 max: 0.839724
smoothSolver:  Solving for Ux, Initial residual = 6.70023e-05, Final residual = 4.9893e-06, No Iterations 1
smoothSolver:  Solving for Uy, Initial residual = 7.87571e-05, Final residual = 5.722e-06, No Iterations 1
[...]
time step continuity errors : sum local = 7.01971e-09, global = 4.63635e-19, cumulative = -1.2501e-17
DICPCG:  Solving for p, Initial residual = 9.72242e-07, Final residual = 9.72242e-07, No Iterations 0
time step continuity errors : sum local = 7.87735e-09, global = 4.93e-20, cumulative = -1.24517e-17
ExecutionTime = 0.31 s  ClockTime = 0 s

Time = 1.87

Courant Number mean: 0.222015 max: 0.839933
smoothSolver:  Solving for Ux, Initial residual = 1.28748e-06, Final residual = 1.28748e-06, No Iterations 0
smoothSolver:  Solving for Uy, Initial residual = 1.48184e-06, Final residual = 1.48184e-06, No Iterations 0
DICPCG:  Solving for p, Initial residual = 1.91003e-06, Final residual = 8.7579e-07, No Iterations 2
time step continuity errors : sum local = 7.70142e-09, global = -3.23428e-20, cumulative = -1.24841e-17
DICPCG:  Solving for p, Initial residual = 1.09399e-06, Final residual = 9.8443e-07, No Iterations 1
time step continuity errors : sum local = 8.52737e-09, global = 4.64958e-19, cumulative = -1.20191e-17
ExecutionTime = 0.31 s  ClockTime = 0 s

Time = 1.875

Courant Number mean: 0.222016 max: 0.839933
smoothSolver:  Solving for Ux, Initial residual = 1.26615e-06, Final residual = 1.26615e-06, No Iterations 0
smoothSolver:  Solving for Uy, Initial residual = 1.44268e-06, Final residual = 1.44268e-06, No Iterations 0
DICPCG:  Solving for p, Initial residual = 2.02548e-06, Final residual = 6.69543e-07, No Iterations 2
time step continuity errors : sum local = 6.28154e-09, global = 2.69826e-19, cumulative = -1.17493e-17
DICPCG:  Solving for p, Initial residual = 7.93801e-07, Final residual = 7.93801e-07, No Iterations 0
time step continuity errors : sum local = 7.18815e-09, global = 2.68834e-20, cumulative = -1.17224e-17
ExecutionTime = 0.31 s  ClockTime = 0 s

Time = 1.88

Courant Number mean: 0.222016 max: 0.839933
smoothSolver:  Solving for Ux, Initial residual = 1.24324e-06, Final residual = 1.24324e-06, No Iterations 0
smoothSolver:  Solving for Uy, Initial residual = 1.40976e-06, Final residual = 1.40976e-06, No Iterations 0
DICPCG:  Solving for p, Initial residual = 1.43145e-06, Final residual = 8.58504e-07, No Iterations 2
time step continuity errors : sum local = 7.82369e-09, global = 9.53408e-19, cumulative = -1.0769e-17
DICPCG:  Solving for p, Initial residual = 1.23363e-06, Final residual = 7.32654e-07, No Iterations 1
time step continuity errors : sum local = 6.98877e-09, global = -9.34631e-19, cumulative = -1.17036e-17
ExecutionTime = 0.31 s  ClockTime = 0 s

Time = 1.885

Courant Number mean: 0.222016 max: 0.839934
smoothSolver:  Solving for Ux, Initial residual = 1.19495e-06, Final residual = 1.19495e-06, No Iterations 0
smoothSolver:  Solving for Uy, Initial residual = 1.39367e-06, Final residual = 1.39367e-06, No Iterations 0
DICPCG:  Solving for p, Initial residual = 1.34969e-06, Final residual = 5.76414e-07, No Iterations 2
time step continuity errors : sum local = 5.96515e-09, global = -2.6933e-19, cumulative = -1.19729e-17
DICPCG:  Solving for p, Initial residual = 6.47198e-07, Final residual = 6.47198e-07, No Iterations 0
time step continuity errors : sum local = 6.50023e-09, global = 9.11553e-19, cumulative = -1.10614e-17
ExecutionTime = 0.31 s  ClockTime = 0 s

Time = 1.89

Courant Number mean: 0.222017 max: 0.839934
smoothSolver:  Solving for Ux, Initial residual = 1.17937e-06, Final residual = 1.17937e-06, No Iterations 0
smoothSolver:  Solving for Uy, Initial residual = 1.36699e-06, Final residual = 1.36699e-06, No Iterations 0
DICPCG:  Solving for p, Initial residual = 1.33228e-06, Final residual = 6.71183e-07, No Iterations 2
time step continuity errors : sum local = 6.79601e-09, global = -3.50476e-19, cumulative = -1.14119e-17
DICPCG:  Solving for p, Initial residual = 9.78673e-07, Final residual = 9.78673e-07, No Iterations 0
time step continuity errors : sum local = 8.99733e-09, global = 1.47478e-18, cumulative = -9.93709e-18
ExecutionTime = 0.31 s  ClockTime = 0 s

Time = 1.895

Courant Number mean: 0.222017 max: 0.839934
smoothSolver:  Solving for Ux, Initial residual = 1.14361e-06, Final residual = 1.14361e-06, No Iterations 0
smoothSolver:  Solving for Uy, Initial residual = 1.34041e-06, Final residual = 1.34041e-06, No Iterations 0
DICPCG:  Solving for p, Initial residual = 2.01083e-06, Final residual = 7.82984e-07, No Iterations 2
time step continuity errors : sum local = 7.74093e-09, global = -4.87127e-19, cumulative = -1.04242e-17
DICPCG:  Solving for p, Initial residual = 1.07306e-06, Final residual = 7.39421e-07, No Iterations 2
time step continuity errors : sum local = 7.45478e-09, global = 3.24255e-19, cumulative = -1.01e-17
ExecutionTime = 0.32 s  ClockTime = 0 s

Time = 1.9

Courant Number mean: 0.222017 max: 0.839934
smoothSolver:  Solving for Ux, Initial residual = 1.12008e-06, Final residual = 1.12008e-06, No Iterations 0
smoothSolver:  Solving for Uy, Initial residual = 1.312e-06, Final residual = 1.312e-06, No Iterations 0
DICPCG:  Solving for p, Initial residual = 1.14616e-06, Final residual = 7.96549e-07, No Iterations 1
time step continuity errors : sum local = 7.86604e-09, global = -1.18874e-18, cumulative = -1.12887e-17
DICPCG:  Solving for p, Initial residual = 9.45009e-07, Final residual = 9.45009e-07, No Iterations 0
time step continuity errors : sum local = 8.94501e-09, global = -3.70742e-19, cumulative = -1.16594e-17
ExecutionTime = 0.32 s  ClockTime = 0 s

Time = 1.905

Courant Number mean: 0.222018 max: 0.839934
smoothSolver:  Solving for Ux, Initial residual = 1.1081e-06, Final residual = 1.1081e-06, No Iterations 0
smoothSolver:  Solving for Uy, Initial residual = 1.26942e-06, Final residual = 1.26942e-06, No Iterations 0
DICPCG:  Solving for p, Initial residual = 1.88466e-06, Final residual = 7.91745e-07, No Iterations 2
time step continuity errors : sum local = 7.98529e-09, global = 1.2947e-18, cumulative = -1.03647e-17
DICPCG:  Solving for p, Initial residual = 9.02486e-07, Final residual = 9.02486e-07, No Iterations 0
time step continuity errors : sum local = 8.77809e-09, global = 3.50476e-19, cumulative = -1.00143e-17
ExecutionTime = 0.32 s  ClockTime = 0 s

Time = 1.91

Courant Number mean: 0.222018 max: 0.839934
smoothSolver:  Solving for Ux, Initial residual = 1.07243e-06, Final residual = 1.07243e-06, No Iterations 0
smoothSolver:  Solving for Uy, Initial residual = 1.2487e-06, Final residual = 1.2487e-06, No Iterations 0
DICPCG:  Solving for p, Initial residual = 1.43016e-06, Final residual = 9.05108e-07, No Iterations 1
time step continuity errors : sum local = 8.78119e-09, global = 7.39086e-19, cumulative = -9.27518e-18
DICPCG:  Solving for p, Initial residual = 1.19044e-06, Final residual = 9.24153e-07, No Iterations 1
time step continuity errors : sum local = 9.0311e-09, global = -9.61184e-20, cumulative = -9.37129e-18
ExecutionTime = 0.32 s  ClockTime = 0 s

Time = 1.915

Courant Number mean: 0.222018 max: 0.839934
smoothSolver:  Solving for Ux, Initial residual = 1.05911e-06, Final residual = 1.05911e-06, No Iterations 0
smoothSolver:  Solving for Uy, Initial residual = 1.21986e-06, Final residual = 1.21986e-06, No Iterations 0
DICPCG:  Solving for p, Initial residual = 1.62101e-06, Final residual = 8.94677e-07, No Iterations 2
time step continuity errors : sum local = 8.94304e-09, global = -1.32663e-18, cumulative = -1.06979e-17
DICPCG:  Solving for p, Initial residual = 1.01025e-06, Final residual = 6.68907e-07, No Iterations 1
time step continuity errors : sum local = 7.37037e-09, global = -1.38139e-20, cumulative = -1.07117e-17
ExecutionTime = 0.32 s  ClockTime = 0 s

Time = 1.92

Courant Number mean: 0.222019 max: 0.839934
smoothSolver:  Solving for Ux, Initial residual = 1.02674e-06, Final residual = 1.02674e-06, No Iterations 0
smoothSolver:  Solving for Uy, Initial residual = 1.20202e-06, Final residual = 1.20202e-06, No Iterations 0
DICPCG:  Solving for p, Initial residual = 1.12194e-06, Final residual = 6.35857e-07, No Iterations 1
time step continuity errors : sum local = 7.16575e-09, global = 7.08067e-19, cumulative = -1.00037e-17
DICPCG:  Solving for p, Initial residual = 8.69036e-07, Final residual = 8.69036e-07, No Iterations 0
time step continuity errors : sum local = 8.84849e-09, global = 1.33027e-18, cumulative = -8.6734e-18
ExecutionTime = 0.32 s  ClockTime = 0 s

Time = 1.925

Courant Number mean: 0.222019 max: 0.839934
smoothSolver:  Solving for Ux, Initial residual = 1.01766e-06, Final residual = 1.01766e-06, No Iterations 0
smoothSolver:  Solving for Uy, Initial residual = 1.1698e-06, Final residual = 1.1698e-06, No Iterations 0
DICPCG:  Solving for p, Initial residual = 1.90283e-06, Final residual = 8.65182e-07, No Iterations 2
time step continuity errors : sum local = 8.90598e-09, global = 2.76196e-19, cumulative = -8.39721e-18
DICPCG:  Solving for p, Initial residual = 9.92715e-07, Final residual = 9.92715e-07, No Iterations 0
time step continuity errors : sum local = 9.82878e-09, global = 2.5593e-19, cumulative = -8.14128e-18
ExecutionTime = 0.32 s  ClockTime = 0 s

Time = 1.93

Courant Number mean: 0.222019 max: 0.839935
smoothSolver:  Solving for Ux, Initial residual = 9.85337e-07, Final residual = 9.85337e-07, No Iterations 0
smoothSolver:  Solving for Uy, Initial residual = 1.14116e-06, Final residual = 1.14116e-06, No Iterations 0
DICPCG:  Solving for p, Initial residual = 1.42691e-06, Final residual = 9.49046e-07, No Iterations 2
time step continuity errors : sum local = 9.59962e-09, global = -9.78886e-19, cumulative = -9.12016e-18
DICPCG:  Solving for p, Initial residual = 1.36854e-06, Final residual = 9.92401e-07, No Iterations 1
time step continuity errors : sum local = 9.92145e-09, global = -2.01336e-19, cumulative = -9.3215e-18
ExecutionTime = 0.32 s  ClockTime = 0 s

Time = 1.935

Courant Number mean: 0.222019 max: 0.839935
smoothSolver:  Solving for Ux, Initial residual = 9.64185e-07, Final residual = 9.64185e-07, No Iterations 0
smoothSolver:  Solving for Uy, Initial residual = 1.12776e-06, Final residual = 1.12776e-06, No Iterations 0
DICPCG:  Solving for p, Initial residual = 1.93932e-06, Final residual = 5.95433e-07, No Iterations 2
time step continuity errors : sum local = 7.13564e-09, global = 4.55446e-19, cumulative = -8.86605e-18
DICPCG:  Solving for p, Initial residual = 7.03163e-07, Final residual = 7.03163e-07, No Iterations 0
time step continuity errors : sum local = 7.91809e-09, global = -1.41448e-20, cumulative = -8.8802e-18
ExecutionTime = 0.32 s  ClockTime = 0 s

Time = 1.94

Courant Number mean: 0.22202 max: 0.839935
smoothSolver:  Solving for Ux, Initial residual = 9.43956e-07, Final residual = 9.43956e-07, No Iterations 0
smoothSolver:  Solving for Uy, Initial residual = 1.09871e-06, Final residual = 1.09871e-06, No Iterations 0
DICPCG:  Solving for p, Initial residual = 1.26955e-06, Final residual = 8.88375e-07, No Iterations 2
time step continuity errors : sum local = 9.29528e-09, global = -1.89755e-19, cumulative = -9.06995e-18
DICPCG:  Solving for p, Initial residual = 1.24332e-06, Final residual = 9.31703e-07, No Iterations 1
time step continuity errors : sum local = 9.62813e-09, global = 3.80089e-19, cumulative = -8.68986e-18
ExecutionTime = 0.32 s  ClockTime = 0 s

Time = 1.945

Courant Number mean: 0.22202 max: 0.839935
smoothSolver:  Solving for Ux, Initial residual = 9.21422e-07, Final residual = 9.21422e-07, No Iterations 0
smoothSolver:  Solving for Uy, Initial residual = 1.0757e-06, Final residual = 1.0757e-06, No Iterations 0
DICPCG:  Solving for p, Initial residual = 1.61804e-06, Final residual = 9.21404e-07, No Iterations 1
time step continuity errors : sum local = 9.57206e-09, global = 5.81343e-19, cumulative = -8.10852e-18
DICPCG:  Solving for p, Initial residual = 1.21173e-06, Final residual = 6.68237e-07, No Iterations 2
time step continuity errors : sum local = 7.77323e-09, global = 2.90506e-19, cumulative = -7.81801e-18
ExecutionTime = 0.32 s  ClockTime = 0 s

Time = 1.95

Courant Number mean: 0.22202 max: 0.839935
smoothSolver:  Solving for Ux, Initial residual = 8.98091e-07, Final residual = 8.98091e-07, No Iterations 0
smoothSolver:  Solving for Uy, Initial residual = 1.05404e-06, Final residual = 1.05404e-06, No Iterations 0
DICPCG:  Solving for p, Initial residual = 1.26236e-06, Final residual = 5.84469e-07, No Iterations 2
time step continuity errors : sum local = 7.18432e-09, global = 6.03015e-20, cumulative = -7.75771e-18
DICPCG:  Solving for p, Initial residual = 9.64338e-07, Final residual = 9.64338e-07, No Iterations 0
time step continuity errors : sum local = 9.90943e-09, global = 2.05306e-19, cumulative = -7.55241e-18
ExecutionTime = 0.33 s  ClockTime = 0 s

Time = 1.955

Courant Number mean: 0.22202 max: 0.839935
smoothSolver:  Solving for Ux, Initial residual = 8.94887e-07, Final residual = 8.94887e-07, No Iterations 0
smoothSolver:  Solving for Uy, Initial residual = 1.03585e-06, Final residual = 1.03585e-06, No Iterations 0
DICPCG:  Solving for p, Initial residual = 2.11006e-06, Final residual = 9.82159e-07, No Iterations 2
time step continuity errors : sum local = 1.00439e-08, global = -3.73803e-19, cumulative = -7.92621e-18
DICPCG:  Solving for p, Initial residual = 1.19843e-06, Final residual = 8.02117e-07, No Iterations 2
time step continuity errors : sum local = 8.75016e-09, global = -3.74051e-19, cumulative = -8.30026e-18
ExecutionTime = 0.33 s  ClockTime = 0 s

Time = 1.96

Courant Number mean: 0.222021 max: 0.839935
smoothSolver:  Solving for Ux, Initial residual = 8.61671e-07, Final residual = 8.61671e-07, No Iterations 0
smoothSolver:  Solving for Uy, Initial residual = 1.01057e-06, Final residual = 1.01057e-06, No Iterations 0
DICPCG:  Solving for p, Initial residual = 1.16994e-06, Final residual = 8.21519e-07, No Iterations 1
time step continuity errors : sum local = 8.90886e-09, global = 8.97987e-19, cumulative = -7.40227e-18
DICPCG:  Solving for p, Initial residual = 9.20996e-07, Final residual = 9.20996e-07, No Iterations 0
time step continuity errors : sum local = 9.62102e-09, global = -2.19534e-19, cumulative = -7.62181e-18
ExecutionTime = 0.33 s  ClockTime = 0 s

Time = 1.965

Courant Number mean: 0.222021 max: 0.839935
smoothSolver:  Solving for Ux, Initial residual = 8.49612e-07, Final residual = 8.49612e-07, No Iterations 0
smoothSolver:  Solving for Uy, Initial residual = 9.7918e-07, Final residual = 9.7918e-07, No Iterations 0
DICPCG:  Solving for p, Initial residual = 1.68991e-06, Final residual = 9.41182e-07, No Iterations 2
time step continuity errors : sum local = 9.76004e-09, global = -1.75528e-19, cumulative = -7.79733e-18
DICPCG:  Solving for p, Initial residual = 1.11687e-06, Final residual = 6.90477e-07, No Iterations 1
time step continuity errors : sum local = 7.98911e-09, global = 1.50133e-19, cumulative = -7.6472e-18
ExecutionTime = 0.33 s  ClockTime = 0 s

Time = 1.97

Courant Number mean: 0.222021 max: 0.839935
smoothSolver:  Solving for Ux, Initial residual = 8.29364e-07, Final residual = 8.29364e-07, No Iterations 0
smoothSolver:  Solving for Uy, Initial residual = 9.68768e-07, Final residual = 9.68768e-07, No Iterations 0
DICPCG:  Solving for p, Initial residual = 1.30375e-06, Final residual = 6.75131e-07, No Iterations 1
time step continuity errors : sum local = 7.89204e-09, global = 4.34518e-19, cumulative = -7.21268e-18
DICPCG:  Solving for p, Initial residual = 7.74354e-07, Final residual = 7.74354e-07, No Iterations 0
time step continuity errors : sum local = 8.6057e-09, global = -6.2477e-19, cumulative = -7.83745e-18
ExecutionTime = 0.33 s  ClockTime = 0 s

Time = 1.975

Courant Number mean: 0.222021 max: 0.839935
smoothSolver:  Solving for Ux, Initial residual = 8.16439e-07, Final residual = 8.16439e-07, No Iterations 0
smoothSolver:  Solving for Uy, Initial residual = 9.38095e-07, Final residual = 9.38095e-07, No Iterations 0
DICPCG:  Solving for p, Initial residual = 1.49796e-06, Final residual = 8.12139e-07, No Iterations 2
time step continuity errors : sum local = 8.9281e-09, global = -3.24751e-19, cumulative = -8.1622e-18
DICPCG:  Solving for p, Initial residual = 9.17082e-07, Final residual = 9.17082e-07, No Iterations 0
time step continuity errors : sum local = 9.68536e-09, global = 3.3567e-19, cumulative = -7.82653e-18
ExecutionTime = 0.33 s  ClockTime = 0 s

Time = 1.98

Courant Number mean: 0.222022 max: 0.839935
smoothSolver:  Solving for Ux, Initial residual = 7.92894e-07, Final residual = 7.92894e-07, No Iterations 0
smoothSolver:  Solving for Uy, Initial residual = 9.21985e-07, Final residual = 9.21985e-07, No Iterations 0
DICPCG:  Solving for p, Initial residual = 1.29252e-06, Final residual = 7.83597e-07, No Iterations 1
time step continuity errors : sum local = 8.7319e-09, global = 2.31776e-19, cumulative = -7.59476e-18
DICPCG:  Solving for p, Initial residual = 9.91699e-07, Final residual = 9.91699e-07, No Iterations 0
time step continuity errors : sum local = 1.02289e-08, global = 2.07291e-19, cumulative = -7.38747e-18
ExecutionTime = 0.33 s  ClockTime = 0 s

Time = 1.985

Courant Number mean: 0.222022 max: 0.839935
smoothSolver:  Solving for Ux, Initial residual = 7.81664e-07, Final residual = 7.81664e-07, No Iterations 0
smoothSolver:  Solving for Uy, Initial residual = 9.07372e-07, Final residual = 9.07372e-07, No Iterations 0
DICPCG:  Solving for p, Initial residual = 2.1474e-06, Final residual = 9.64904e-07, No Iterations 2
time step continuity errors : sum local = 1.0129e-08, global = 2.26647e-20, cumulative = -7.3648e-18
DICPCG:  Solving for p, Initial residual = 1.16207e-06, Final residual = 7.86037e-07, No Iterations 1
time step continuity errors : sum local = 8.85717e-09, global = 1.07699e-19, cumulative = -7.2571e-18
ExecutionTime = 0.33 s  ClockTime = 0 s

Time = 1.99

Courant Number mean: 0.222022 max: 0.839936
smoothSolver:  Solving for Ux, Initial residual = 7.62213e-07, Final residual = 7.62213e-07, No Iterations 0
smoothSolver:  Solving for Uy, Initial residual = 8.83544e-07, Final residual = 8.83544e-07, No Iterations 0
DICPCG:  Solving for p, Initial residual = 1.3247e-06, Final residual = 8.10818e-07, No Iterations 1
time step continuity errors : sum local = 9.05817e-09, global = 2.53944e-19, cumulative = -7.00316e-18
DICPCG:  Solving for p, Initial residual = 9.89955e-07, Final residual = 9.89955e-07, No Iterations 0
time step continuity errors : sum local = 1.03488e-08, global = 2.891e-19, cumulative = -6.71406e-18
ExecutionTime = 0.33 s  ClockTime = 0 s

Time = 1.995

Courant Number mean: 0.222022 max: 0.839936
smoothSolver:  Solving for Ux, Initial residual = 7.50207e-07, Final residual = 7.50207e-07, No Iterations 0
smoothSolver:  Solving for Uy, Initial residual = 8.652e-07, Final residual = 8.652e-07, No Iterations 0
DICPCG:  Solving for p, Initial residual = 1.80287e-06, Final residual = 7.99688e-07, No Iterations 2
time step continuity errors : sum local = 9.0517e-09, global = 5.86306e-19, cumulative = -6.12775e-18
DICPCG:  Solving for p, Initial residual = 9.2312e-07, Final residual = 9.2312e-07, No Iterations 0
time step continuity errors : sum local = 9.95009e-09, global = -1.51879e-18, cumulative = -7.64654e-18
ExecutionTime = 0.33 s  ClockTime = 0 s

Time = 2

Courant Number mean: 0.222022 max: 0.839936
smoothSolver:  Solving for Ux, Initial residual = 7.24079e-07, Final residual = 7.24079e-07, No Iterations 0
smoothSolver:  Solving for Uy, Initial residual = 8.46778e-07, Final residual = 8.46778e-07, No Iterations 0
DICPCG:  Solving for p, Initial residual = 1.35352e-06, Final residual = 9.56944e-07, No Iterations 1
time step continuity errors : sum local = 1.01851e-08, global = -5.31381e-19, cumulative = -8.17792e-18
DICPCG:  Solving for p, Initial residual = 1.14175e-06, Final residual = 6.81267e-07, No Iterations 1
time step continuity errors : sum local = 8.28506e-09, global = 1.16302e-19, cumulative = -8.06162e-18
ExecutionTime = 0.34 s  ClockTime = 0 s

End

